/*---------------------------------------------------------------------------*\
  =========                 |
  \\      /  F ield         | OpenFOAM: The Open Source CFD Toolbox
   \\    /   O peration     | Website:  https://openfoam.org
    \\  /    A nd           | Version:  8
     \\/     M anipulation  |
\*---------------------------------------------------------------------------*/
/*   Windows 32 and 64 bit porting by blueCAPE: http://www.bluecape.com.pt   *\
|  Based on Windows porting (2.0.x v4) by Symscape: http://www.symscape.com   |
\*---------------------------------------------------------------------------*/
Build  : 8-53cd1468e263
Exec   : C:/PROGRA~1/BLUECF~1/OpenFOAM-8/platforms/mingw_w64GccDPInt32Opt/bin/surfaceCheck.exe constant/triSurface/temple_ready.stl
Date   : Nov 18 2025
Time   : 10:49:21
Host   : "HARRYSDELL"
PID    : 9840
I/O    : uncollated
Case   : C:/PROGRA~1/BLUECF~1/ofuser-of8/run/hotRoom03
nProcs : 1
SigFpe : Enabling floating point exception trapping (FOAM_SIGFPE).
fileModificationChecking : Monitoring run-time modified files using timeStampMaster (fileModificationSkew 10)
allowSystemOperations : Allowing user-supplied system call operations

// * * * * * * * * * * * * * * * * * * * * * * * * * * * * * * * * * * * * * //
Reading surface from "constant/triSurface/temple_ready.stl" ...

Statistics:
Triangles    : 562540
Vertices     : 279583
Bounding Box : (3.2142 -0.9575 4.455) (7.6529 5.95908 5.53976)

Region	Size
------	----
OBJECT	562540


--> FOAM Warning : 
    From function bool validTri(bool, const Foam::triSurface&, Foam::label)
    in file surfaceCheck.C at line 103
    triangle 28 vertices ((227825 227610 232031) 0) has the same vertices as triangle 406385 vertices ((227825 232031 227610) 0) coords:3((7.5942 -0.2275 4.73539) (7.5942 -0.162944 4.73539) (7.6342 -0.162944 4.73539))
--> FOAM Warning : 
    From function bool validTri(bool, const Foam::triSurface&, Foam::label)
    in file surfaceCheck.C at line 103
    triangle 29 vertices ((227825 232031 232197) 0) has the same vertices as triangle 406384 vertices ((227825 232197 232031) 0) coords:3((7.5942 -0.2275 4.73539) (7.6342 -0.162944 4.73539) (7.6342 -0.2275 4.73539))
--> FOAM Warning : 
    From function bool validTri(bool, const Foam::triSurface&, Foam::label)
    in file surfaceCheck.C at line 103
    triangle 30 vertices ((231913 232031 227610) 0) has the same vertices as triangle 406387 vertices ((231913 227610 232031) 0) coords:3((7.6342 -0.098388 4.73539) (7.6342 -0.162944 4.73539) (7.5942 -0.162944 4.73539))
--> FOAM Warning : 
    From function bool validTri(bool, const Foam::triSurface&, Foam::label)
    in file surfaceCheck.C at line 103
    triangle 11210 vertices ((82524 83146 82660) 0) has the same vertices as triangle 17703 vertices ((83146 82524 82660) 0) coords:3((4.4342 -0.4375 5.03008) (4.4816 -0.436496 5.03788) (4.4342 -0.4375 5.04008))
--> FOAM Warning : 
    From function bool validTri(bool, const Foam::triSurface&, Foam::label)
    in file surfaceCheck.C at line 103
    triangle 11211 vertices ((83602 83146 82911) 0) has the same vertices as triangle 17702 vertices ((83602 82911 83146) 0) coords:3((4.531 -0.435556 5.03582) (4.4816 -0.436496 5.03788) (4.4816 -0.436496 5.01788))
--> FOAM Warning : 
    From function bool validTri(bool, const Foam::triSurface&, Foam::label)
    in file surfaceCheck.C at line 103
    triangle 11212 vertices ((83602 82911 83377) 0) has the same vertices as triangle 17701 vertices ((83602 83377 82911) 0) coords:3((4.531 -0.435556 5.03582) (4.4816 -0.436496 5.01788) (4.531 -0.435556 5.01582))
--> FOAM Warning : 
    From function bool validTri(bool, const Foam::triSurface&, Foam::label)
    in file surfaceCheck.C at line 103
    triangle 11213 vertices ((86992 84596 83906) 0) has the same vertices as triangle 17700 vertices ((86992 83906 84596) 0) coords:3((4.6359 -0.433872 5.03212) (4.5824 -0.434684 5.0339) (4.5824 -0.434684 5.0139))
--> FOAM Warning : 
    From function bool validTri(bool, const Foam::triSurface&, Foam::label)
    in file surfaceCheck.C at line 103
    triangle 11214 vertices ((86992 83906 85942) 0) has the same vertices as triangle 17699 vertices ((86992 85942 83906) 0) coords:3((4.6359 -0.433872 5.03212) (4.5824 -0.434684 5.0139) (4.6359 -0.433872 5.01212))
--> FOAM Warning : 
    From function bool validTri(bool, const Foam::triSurface&, Foam::label)
    in file surfaceCheck.C at line 103
    triangle 11215 vertices ((89101 86992 85942) 0) has the same vertices as triangle 17698 vertices ((89101 85942 86992) 0) coords:3((4.6913 -0.433128 5.03048) (4.6359 -0.433872 5.03212) (4.6359 -0.433872 5.01212))
--> FOAM Warning : 
    From function bool validTri(bool, const Foam::triSurface&, Foam::label)
    in file surfaceCheck.C at line 103
    triangle 11216 vertices ((89101 85942 88316) 0) has the same vertices as triangle 17697 vertices ((89101 88316 85942) 0) coords:3((4.6913 -0.433128 5.03048) (4.6359 -0.433872 5.01212) (4.6913 -0.433128 5.01048))
--> FOAM Warning : 
    From function bool validTri(bool, const Foam::triSurface&, Foam::label)
    in file surfaceCheck.C at line 103
    triangle 11217 vertices ((84596 83602 83377) 0) has the same vertices as triangle 17705 vertices ((84596 83377 83602) 0) coords:3((4.5824 -0.434684 5.0339) (4.531 -0.435556 5.03582) (4.531 -0.435556 5.01582))
--> FOAM Warning : 
    From function bool validTri(bool, const Foam::triSurface&, Foam::label)
    in file surfaceCheck.C at line 103
    triangle 11218 vertices ((84596 83377 83906) 0) has the same vertices as triangle 17704 vertices ((84596 83906 83377) 0) coords:3((4.5824 -0.434684 5.0339) (4.531 -0.435556 5.01582) (4.5824 -0.434684 5.0139))
--> FOAM Warning : 
    From function bool validTri(bool, const Foam::triSurface&, Foam::label)
    in file surfaceCheck.C at line 103
    triangle 11219 vertices ((92604 90878 90229) 0) has the same vertices as triangle 17694 vertices ((92604 90229 90878) 0) coords:3((4.8083 -0.431832 5.02764) (4.7488 -0.432448 5.02899) (4.7488 -0.432448 5.00899))
--> FOAM Warning : 
    From function bool validTri(bool, const Foam::triSurface&, Foam::label)
    in file surfaceCheck.C at line 103
    triangle 11220 vertices ((92604 90229 92026) 0) has the same vertices as triangle 17693 vertices ((92604 92026 90229) 0) coords:3((4.8083 -0.431832 5.02764) (4.7488 -0.432448 5.00899) (4.8083 -0.431832 5.00764))
--> FOAM Warning : 
    From function bool validTri(bool, const Foam::triSurface&, Foam::label)
    in file surfaceCheck.C at line 103
    triangle 11223 vertices ((95105 94552 95409) 0) has the same vertices as triangle 17690 vertices ((95105 95409 94552) 0) coords:3((4.9012 -0.431032 5.02588) (4.9012 -0.431032 5.00588) (4.9333 -0.430796 5.00536))
--> FOAM Warning : 
    From function bool validTri(bool, const Foam::triSurface&, Foam::label)
    in file surfaceCheck.C at line 103
    triangle 11224 vertices ((95105 95409 95960) 0) has the same vertices as triangle 17689 vertices ((95105 95960 95409) 0) coords:3((4.9012 -0.431032 5.02588) (4.9333 -0.430796 5.00536) (4.9333 -0.430796 5.02536))
--> FOAM Warning : 
    From function bool validTri(bool, const Foam::triSurface&, Foam::label)
    in file surfaceCheck.C at line 103
    triangle 11229 vertices ((90878 89101 88316) 0) has the same vertices as triangle 17707 vertices ((90878 88316 89101) 0) coords:3((4.7488 -0.432448 5.02899) (4.6913 -0.433128 5.03048) (4.6913 -0.433128 5.01048))
--> FOAM Warning : 
    From function bool validTri(bool, const Foam::triSurface&, Foam::label)
    in file surfaceCheck.C at line 103
    triangle 11230 vertices ((90878 88316 90229) 0) has the same vertices as triangle 17706 vertices ((90878 90229 88316) 0) coords:3((4.7488 -0.432448 5.02899) (4.6913 -0.433128 5.01048) (4.7488 -0.432448 5.00899))
--> FOAM Warning : 
    From function bool validTri(bool, const Foam::triSurface&, Foam::label)
    in file surfaceCheck.C at line 103
    triangle 11233 vertices ((99970 99140 98503) 0) has the same vertices as triangle 17680 vertices ((99970 98503 99140) 0) coords:3((5.0663 -0.43002 5.02366) (5.0323 -0.430188 5.02403) (5.0323 -0.430188 5.00403))
--> FOAM Warning : 
    From function bool validTri(bool, const Foam::triSurface&, Foam::label)
    in file surfaceCheck.C at line 103
    triangle 11234 vertices ((99970 98503 99491) 0) has the same vertices as triangle 17679 vertices ((99970 99491 98503) 0) coords:3((5.0663 -0.43002 5.02366) (5.0323 -0.430188 5.00403) (5.0663 -0.43002 5.00366))
--> FOAM Warning : 
    From function bool validTri(bool, const Foam::triSurface&, Foam::label)
    in file surfaceCheck.C at line 103
    triangle 11241 vertices ((104124 103561 104653) 0) has the same vertices as triangle 17672 vertices ((104124 104653 103561) 0) coords:3((5.2074 -0.4295 5.02252) (5.2074 -0.4295 5.00252) (5.244 -0.429412 5.00232))
--> FOAM Warning : 
    From function bool validTri(bool, const Foam::triSurface&, Foam::label)
    in file surfaceCheck.C at line 103
    triangle 11242 vertices ((104124 104653 105272) 0) has the same vertices as triangle 17671 vertices ((104124 105272 104653) 0) coords:3((5.2074 -0.4295 5.02252) (5.244 -0.429412 5.00232) (5.244 -0.429412 5.02232))
--> FOAM Warning : 
    From function bool validTri(bool, const Foam::triSurface&, Foam::label)
    in file surfaceCheck.C at line 103
    triangle 11245 vertices ((111711 109877 108728) 0) has the same vertices as triangle 17668 vertices ((111711 108728 109877) 0) coords:3((5.3566 -0.429244 5.02195) (5.3186 -0.429284 5.02204) (5.3186 -0.429284 5.00204))
--> FOAM Warning : 
    From function bool validTri(bool, const Foam::triSurface&, Foam::label)
    in file surfaceCheck.C at line 103
    triangle 11246 vertices ((111711 108728 110890) 0) has the same vertices as triangle 17667 vertices ((111711 110890 108728) 0) coords:3((5.3566 -0.429244 5.02195) (5.3186 -0.429284 5.00204) (5.3566 -0.429244 5.00195))
--> FOAM Warning : 
    From function bool validTri(bool, const Foam::triSurface&, Foam::label)
    in file surfaceCheck.C at line 103
    triangle 11253 vertices ((103081 102483 103561) 0) has the same vertices as triangle 17686 vertices ((103081 103561 102483) 0) coords:3((5.1714 -0.429608 5.02275) (5.1714 -0.429608 5.00275) (5.2074 -0.4295 5.00252))
--> FOAM Warning : 
    From function bool validTri(bool, const Foam::triSurface&, Foam::label)
    in file surfaceCheck.C at line 103
    triangle 11257 vertices ((82371 82911 82524) 0) has the same vertices as triangle 17713 vertices ((82524 82911 82371) 0) coords:3((4.4342 -0.4375 5.02008) (4.4816 -0.436496 5.01788) (4.4342 -0.4375 5.03008))
--> FOAM Warning : 
    From function bool validTri(bool, const Foam::triSurface&, Foam::label)
    in file surfaceCheck.C at line 103
    triangle 11259 vertices ((116925 115822 115201) 0) has the same vertices as triangle 17656 vertices ((116925 115201 115822) 0) coords:3((5.5118 -0.429244 5.02195) (5.4732 -0.429216 5.0219) (5.4732 -0.429216 5.0019))
--> FOAM Warning : 
    From function bool validTri(bool, const Foam::triSurface&, Foam::label)
    in file surfaceCheck.C at line 103
    triangle 11260 vertices ((116925 115201 116412) 0) has the same vertices as triangle 17655 vertices ((116925 116412 115201) 0) coords:3((5.5118 -0.429244 5.02195) (5.4732 -0.429216 5.0019) (5.5118 -0.429244 5.00195))
--> FOAM Warning : 
    From function bool validTri(bool, const Foam::triSurface&, Foam::label)
    in file surfaceCheck.C at line 103
    triangle 11261 vertices ((118031 116925 116412) 0) has the same vertices as triangle 17652 vertices ((118031 116412 116925) 0) coords:3((5.5498 -0.429284 5.02204) (5.5118 -0.429244 5.02195) (5.5118 -0.429244 5.00195))
--> FOAM Warning : 
    From function bool validTri(bool, const Foam::triSurface&, Foam::label)
    in file surfaceCheck.C at line 103
    triangle 11262 vertices ((118031 116412 117471) 0) has the same vertices as triangle 17651 vertices ((118031 117471 116412) 0) coords:3((5.5498 -0.429284 5.02204) (5.5118 -0.429244 5.00195) (5.5498 -0.429284 5.00204))
--> FOAM Warning : 
    From function bool validTri(bool, const Foam::triSurface&, Foam::label)
    in file surfaceCheck.C at line 103
    triangle 11263 vertices ((120521 119358 118737) 0) has the same vertices as triangle 17650 vertices ((120521 118737 119358) 0) coords:3((5.6244 -0.429412 5.02232) (5.5874 -0.42934 5.02216) (5.5874 -0.42934 5.00216))
--> FOAM Warning : 
    From function bool validTri(bool, const Foam::triSurface&, Foam::label)
    in file surfaceCheck.C at line 103
    triangle 11264 vertices ((120521 118737 119973) 0) has the same vertices as triangle 17649 vertices ((120521 119973 118737) 0) coords:3((5.6244 -0.429412 5.02232) (5.5874 -0.42934 5.00216) (5.6244 -0.429412 5.00232))
--> FOAM Warning : 
    From function bool validTri(bool, const Foam::triSurface&, Foam::label)
    in file surfaceCheck.C at line 103
    triangle 11267 vertices ((119358 118031 117471) 0) has the same vertices as triangle 17658 vertices ((119358 117471 118031) 0) coords:3((5.5874 -0.42934 5.02216) (5.5498 -0.429284 5.02204) (5.5498 -0.429284 5.00204))
--> FOAM Warning : 
    From function bool validTri(bool, const Foam::triSurface&, Foam::label)
    in file surfaceCheck.C at line 103
    triangle 11268 vertices ((119358 117471 118737) 0) has the same vertices as triangle 17657 vertices ((119358 118737 117471) 0) coords:3((5.5874 -0.42934 5.02216) (5.5498 -0.429284 5.00204) (5.5874 -0.42934 5.00216))
--> FOAM Warning : 
    From function bool validTri(bool, const Foam::triSurface&, Foam::label)
    in file surfaceCheck.C at line 103
    triangle 11269 vertices ((124480 123413 125535) 0) has the same vertices as triangle 17644 vertices ((124480 125535 123413) 0) coords:3((5.697 -0.429608 5.02275) (5.697 -0.429608 5.00275) (5.7325 -0.429728 5.00302))
--> FOAM Warning : 
    From function bool validTri(bool, const Foam::triSurface&, Foam::label)
    in file surfaceCheck.C at line 103
    triangle 11270 vertices ((124480 125535 126591) 0) has the same vertices as triangle 17643 vertices ((124480 126591 125535) 0) coords:3((5.697 -0.429608 5.02275) (5.7325 -0.429728 5.00302) (5.7325 -0.429728 5.02302))
--> FOAM Warning : 
    From function bool validTri(bool, const Foam::triSurface&, Foam::label)
    in file surfaceCheck.C at line 103
    triangle 11273 vertices ((131667 130049 129299) 0) has the same vertices as triangle 17640 vertices ((131667 129299 130049) 0) coords:3((5.8361 -0.430188 5.02403) (5.802 -0.43002 5.02366) (5.802 -0.43002 5.00366))
--> FOAM Warning : 
    From function bool validTri(bool, const Foam::triSurface&, Foam::label)
    in file surfaceCheck.C at line 103
    triangle 11274 vertices ((131667 129299 130836) 0) has the same vertices as triangle 17639 vertices ((131667 130836 129299) 0) coords:3((5.8361 -0.430188 5.02403) (5.802 -0.43002 5.00366) (5.8361 -0.430188 5.00403))
--> FOAM Warning : 
    From function bool validTri(bool, const Foam::triSurface&, Foam::label)
    in file surfaceCheck.C at line 103
    triangle 11275 vertices ((133161 131667 130836) 0) has the same vertices as triangle 17638 vertices ((133161 130836 131667) 0) coords:3((5.8696 -0.430376 5.02444) (5.8361 -0.430188 5.02403) (5.8361 -0.430188 5.00403))
--> FOAM Warning : 
    From function bool validTri(bool, const Foam::triSurface&, Foam::label)
    in file surfaceCheck.C at line 103
    triangle 11276 vertices ((133161 130836 132430) 0) has the same vertices as triangle 17637 vertices ((133161 132430 130836) 0) coords:3((5.8696 -0.430376 5.02444) (5.8361 -0.430188 5.00403) (5.8696 -0.430376 5.00444))
--> FOAM Warning : 
    From function bool validTri(bool, const Foam::triSurface&, Foam::label)
    in file surfaceCheck.C at line 103
    triangle 11283 vertices ((136035 135212 136765) 0) has the same vertices as triangle 17630 vertices ((136035 136765 135212) 0) coords:3((5.9351 -0.430796 5.02536) (5.9351 -0.430796 5.00536) (5.9671 -0.431032 5.00588))
--> FOAM Warning : 
    From function bool validTri(bool, const Foam::triSurface&, Foam::label)
    in file surfaceCheck.C at line 103
    triangle 11284 vertices ((136035 136765 137543) 0) has the same vertices as triangle 17629 vertices ((136035 137543 136765) 0) coords:3((5.9351 -0.430796 5.02536) (5.9671 -0.431032 5.00588) (5.9671 -0.431032 5.02588))
--> FOAM Warning : 
    From function bool validTri(bool, const Foam::triSurface&, Foam::label)
    in file surfaceCheck.C at line 103
    triangle 11287 vertices ((142975 142161 144762) 0) has the same vertices as triangle 17626 vertices ((142975 144762 142161) 0) coords:3((6.0601 -0.431832 5.02764) (6.0601 -0.431832 5.00764) (6.1196 -0.432448 5.00899))
--> FOAM Warning : 
    From function bool validTri(bool, const Foam::triSurface&, Foam::label)
    in file surfaceCheck.C at line 103
    triangle 11288 vertices ((142975 144762 145315) 0) has the same vertices as triangle 17625 vertices ((142975 145315 144762) 0) coords:3((6.0601 -0.431832 5.02764) (6.1196 -0.432448 5.00899) (6.1196 -0.432448 5.02899))
--> FOAM Warning : 
    From function bool validTri(bool, const Foam::triSurface&, Foam::label)
    in file surfaceCheck.C at line 103
    triangle 11291 vertices ((146851 146510 147731) 0) has the same vertices as triangle 17622 vertices ((146851 147731 146510) 0) coords:3((6.177 -0.433128 5.03048) (6.177 -0.433128 5.01048) (6.2325 -0.433872 5.01212))
--> FOAM Warning : 
    From function bool validTri(bool, const Foam::triSurface&, Foam::label)
    in file surfaceCheck.C at line 103
    triangle 11292 vertices ((146851 147731 148131) 0) has the same vertices as triangle 17621 vertices ((146851 148131 147731) 0) coords:3((6.177 -0.433128 5.03048) (6.2325 -0.433872 5.01212) (6.2325 -0.433872 5.03212))
--> FOAM Warning : 
    From function bool validTri(bool, const Foam::triSurface&, Foam::label)
    in file surfaceCheck.C at line 103
    triangle 11293 vertices ((150713 148131 147731) 0) has the same vertices as triangle 17620 vertices ((150713 147731 148131) 0) coords:3((6.286 -0.434684 5.0339) (6.2325 -0.433872 5.03212) (6.2325 -0.433872 5.01212))
--> FOAM Warning : 
    From function bool validTri(bool, const Foam::triSurface&, Foam::label)
    in file surfaceCheck.C at line 103
    triangle 11294 vertices ((150713 147731 149748) 0) has the same vertices as triangle 17619 vertices ((150713 149748 147731) 0) coords:3((6.286 -0.434684 5.0339) (6.2325 -0.433872 5.01212) (6.286 -0.434684 5.0139))
--> FOAM Warning : 
    From function bool validTri(bool, const Foam::triSurface&, Foam::label)
    in file surfaceCheck.C at line 103
    triangle 11295 vertices ((157585 154456 153414) 0) has the same vertices as triangle 17618 vertices ((157585 153414 154456) 0) coords:3((6.3868 -0.436496 5.03788) (6.3374 -0.435556 5.03582) (6.3374 -0.435556 5.01582))
--> FOAM Warning : 
    From function bool validTri(bool, const Foam::triSurface&, Foam::label)
    in file surfaceCheck.C at line 103
    triangle 11296 vertices ((157585 153414 156739) 0) has the same vertices as triangle 17617 vertices ((157585 156739 153414) 0) coords:3((6.3868 -0.436496 5.03788) (6.3374 -0.435556 5.01582) (6.3868 -0.436496 5.01788))
--> FOAM Warning : 
    From function bool validTri(bool, const Foam::triSurface&, Foam::label)
    in file surfaceCheck.C at line 103
    triangle 11297 vertices ((157585 159612 159934) 0) has the same vertices as triangle 17616 vertices ((159612 157585 159934) 0) coords:3((6.3868 -0.436496 5.03788) (6.4342 -0.4375 5.03008) (6.4342 -0.4375 5.04008))
--> FOAM Warning : 
    From function bool validTri(bool, const Foam::triSurface&, Foam::label)
    in file surfaceCheck.C at line 103
    triangle 11298 vertices ((154456 150713 149748) 0) has the same vertices as triangle 17624 vertices ((154456 149748 150713) 0) coords:3((6.3374 -0.435556 5.03582) (6.286 -0.434684 5.0339) (6.286 -0.434684 5.0139))
--> FOAM Warning : 
    From function bool validTri(bool, const Foam::triSurface&, Foam::label)
    in file surfaceCheck.C at line 103
    triangle 11299 vertices ((154456 149748 153414) 0) has the same vertices as triangle 17623 vertices ((154456 153414 149748) 0) coords:3((6.3374 -0.435556 5.03582) (6.286 -0.434684 5.0139) (6.3374 -0.435556 5.01582))
--> FOAM Warning : 
    From function bool validTri(bool, const Foam::triSurface&, Foam::label)
    in file surfaceCheck.C at line 103
    triangle 11300 vertices ((145315 144762 146510) 0) has the same vertices as triangle 17636 vertices ((145315 146510 144762) 0) coords:3((6.1196 -0.432448 5.02899) (6.1196 -0.432448 5.00899) (6.177 -0.433128 5.01048))
--> FOAM Warning : 
    From function bool validTri(bool, const Foam::triSurface&, Foam::label)
    in file surfaceCheck.C at line 103
    triangle 11302 vertices ((134509 133161 132430) 0) has the same vertices as triangle 17662 vertices ((134509 132430 133161) 0) coords:3((5.9026 -0.430576 5.02488) (5.8696 -0.430376 5.02444) (5.8696 -0.430376 5.00444))
--> FOAM Warning : 
    From function bool validTri(bool, const Foam::triSurface&, Foam::label)
    in file surfaceCheck.C at line 103
    triangle 11303 vertices ((134509 132430 133807) 0) has the same vertices as triangle 17661 vertices ((134509 133807 132430) 0) coords:3((5.9026 -0.430576 5.02488) (5.8696 -0.430376 5.00444) (5.9026 -0.430576 5.00488))
--> FOAM Warning : 
    From function bool validTri(bool, const Foam::triSurface&, Foam::label)
    in file surfaceCheck.C at line 103
    triangle 11304 vertices ((159612 157585 156739) 0) has the same vertices as triangle 17664 vertices ((156739 157585 159612) 0) coords:3((6.4342 -0.4375 5.03008) (6.3868 -0.436496 5.03788) (6.3868 -0.436496 5.01788))
--> FOAM Warning : 
    From function bool validTri(bool, const Foam::triSurface&, Foam::label)
    in file surfaceCheck.C at line 103
    triangle 11305 vertices ((115822 114513 113875) 0) has the same vertices as triangle 17654 vertices ((115822 113875 114513) 0) coords:3((5.4732 -0.429216 5.0219) (5.4342 -0.429208 5.02188) (5.4342 -0.429208 5.00188))
--> FOAM Warning : 
    From function bool validTri(bool, const Foam::triSurface&, Foam::label)
    in file surfaceCheck.C at line 103
    triangle 11306 vertices ((115822 113875 115201) 0) has the same vertices as triangle 17653 vertices ((115822 115201 113875) 0) coords:3((5.4732 -0.429216 5.0219) (5.4342 -0.429208 5.00188) (5.4732 -0.429216 5.0019))
--> FOAM Warning : 
    From function bool validTri(bool, const Foam::triSurface&, Foam::label)
    in file surfaceCheck.C at line 103
    triangle 11307 vertices ((159612 156739 159295) 0) has the same vertices as triangle 17663 vertices ((159295 156739 159612) 0) coords:3((6.4342 -0.4375 5.03008) (6.3868 -0.436496 5.01788) (6.4342 -0.4375 5.02008))
--> FOAM Warning : 
    From function bool validTri(bool, const Foam::triSurface&, Foam::label)
    in file surfaceCheck.C at line 103
    triangle 23246 vertices ((776 875 230) 0) has the same vertices as triangle 24479 vertices ((776 230 875) 0) coords:3((3.2542 -0.118388 4.62408) (3.2642 -0.118388 4.62408) (3.2642 -0.118388 4.57772))
--> FOAM Warning : 
    From function bool validTri(bool, const Foam::triSurface&, Foam::label)
    in file surfaceCheck.C at line 103
    triangle 23247 vertices ((776 230 155) 0) has the same vertices as triangle 24478 vertices ((776 155 230) 0) coords:3((3.2542 -0.118388 4.62408) (3.2642 -0.118388 4.57772) (3.2542 -0.118388 4.57772))
--> FOAM Warning : 
    From function bool validTri(bool, const Foam::triSurface&, Foam::label)
    in file surfaceCheck.C at line 103
    triangle 23248 vertices ((155 230 39) 0) has the same vertices as triangle 24481 vertices ((155 39 230) 0) coords:3((3.2542 -0.118388 4.57772) (3.2642 -0.118388 4.57772) (3.2642 -0.118388 4.53136))
--> FOAM Warning : 
    From function bool validTri(bool, const Foam::triSurface&, Foam::label)
    in file surfaceCheck.C at line 103
    triangle 23249 vertices ((155 39 34) 0) has the same vertices as triangle 24480 vertices ((155 34 39) 0) coords:3((3.2542 -0.118388 4.57772) (3.2642 -0.118388 4.53136) (3.2542 -0.118388 4.53136))
--> FOAM Warning : 
    From function bool validTri(bool, const Foam::triSurface&, Foam::label)
    in file surfaceCheck.C at line 103
    triangle 23250 vertices ((230 330 47) 0) has the same vertices as triangle 24483 vertices ((230 47 330) 0) coords:3((3.2642 -0.118388 4.57772) (3.2742 -0.118388 4.57772) (3.2742 -0.118388 4.53136))
--> FOAM Warning : 
    From function bool validTri(bool, const Foam::triSurface&, Foam::label)
    in file surfaceCheck.C at line 103
    triangle 23251 vertices ((230 47 39) 0) has the same vertices as triangle 24482 vertices ((230 39 47) 0) coords:3((3.2642 -0.118388 4.57772) (3.2742 -0.118388 4.53136) (3.2642 -0.118388 4.53136))
--> FOAM Warning : 
    From function bool validTri(bool, const Foam::triSurface&, Foam::label)
    in file surfaceCheck.C at line 103
    triangle 23252 vertices ((875 972 330) 0) has the same vertices as triangle 24485 vertices ((875 330 972) 0) coords:3((3.2642 -0.118388 4.62408) (3.2742 -0.118388 4.62408) (3.2742 -0.118388 4.57772))
--> FOAM Warning : 
    From function bool validTri(bool, const Foam::triSurface&, Foam::label)
    in file surfaceCheck.C at line 103
    triangle 23254 vertices ((10 39 47) 0) has the same vertices as triangle 24487 vertices ((10 47 39) 0) coords:3((3.2642 -0.118388 4.485) (3.2642 -0.118388 4.53136) (3.2742 -0.118388 4.53136))
--> FOAM Warning : 
    From function bool validTri(bool, const Foam::triSurface&, Foam::label)
    in file surfaceCheck.C at line 103
    triangle 23255 vertices ((10 47 20) 0) has the same vertices as triangle 24486 vertices ((10 20 47) 0) coords:3((3.2642 -0.118388 4.485) (3.2742 -0.118388 4.53136) (3.2842 -0.118388 4.485))
--> FOAM Warning : 
    From function bool validTri(bool, const Foam::triSurface&, Foam::label)
    in file surfaceCheck.C at line 103
    triangle 23256 vertices ((444 20 47) 0) has the same vertices as triangle 24488 vertices ((444 47 20) 0) coords:3((3.2842 -0.118388 4.57772) (3.2842 -0.118388 4.485) (3.2742 -0.118388 4.53136))
--> FOAM Warning : 
    From function bool validTri(bool, const Foam::triSurface&, Foam::label)
    in file surfaceCheck.C at line 103
    triangle 23257 vertices ((47 330 444) 0) has the same vertices as triangle 24489 vertices ((47 444 330) 0) coords:3((3.2742 -0.118388 4.53136) (3.2742 -0.118388 4.57772) (3.2842 -0.118388 4.57772))
--> FOAM Warning : 
    From function bool validTri(bool, const Foam::triSurface&, Foam::label)
    in file surfaceCheck.C at line 103
    triangle 23258 vertices ((972 444 330) 0) has the same vertices as triangle 24490 vertices ((972 330 444) 0) coords:3((3.2742 -0.118388 4.62408) (3.2842 -0.118388 4.57772) (3.2742 -0.118388 4.57772))
--> FOAM Warning : 
    From function bool validTri(bool, const Foam::triSurface&, Foam::label)
    in file surfaceCheck.C at line 103
    triangle 23259 vertices ((34 10 1) 0) has the same vertices as triangle 24491 vertices ((34 1 10) 0) coords:3((3.2542 -0.118388 4.53136) (3.2642 -0.118388 4.485) (3.2442 -0.118388 4.485))
--> FOAM Warning : 
    From function bool validTri(bool, const Foam::triSurface&, Foam::label)
    in file surfaceCheck.C at line 103
    triangle 23261 vertices ((103 155 34) 0) has the same vertices as triangle 24494 vertices ((103 34 155) 0) coords:3((3.2442 -0.118388 4.57772) (3.2542 -0.118388 4.57772) (3.2542 -0.118388 4.53136))
--> FOAM Warning : 
    From function bool validTri(bool, const Foam::triSurface&, Foam::label)
    in file surfaceCheck.C at line 103
    triangle 23262 vertices ((103 34 1) 0) has the same vertices as triangle 24493 vertices ((103 1 34) 0) coords:3((3.2442 -0.118388 4.57772) (3.2542 -0.118388 4.53136) (3.2442 -0.118388 4.485))
--> FOAM Warning : 
    From function bool validTri(bool, const Foam::triSurface&, Foam::label)
    in file surfaceCheck.C at line 103
    triangle 23263 vertices ((1715 972 875) 0) has the same vertices as triangle 24495 vertices ((1715 875 972) 0) coords:3((3.2642 -0.118388 4.67044) (3.2742 -0.118388 4.62408) (3.2642 -0.118388 4.62408))
--> FOAM Warning : 
    From function bool validTri(bool, const Foam::triSurface&, Foam::label)
    in file surfaceCheck.C at line 103
    triangle 23264 vertices ((972 1715 2121) 0) has the same vertices as triangle 24496 vertices ((972 2121 1715) 0) coords:3((3.2742 -0.118388 4.62408) (3.2642 -0.118388 4.67044) (3.2842 -0.118388 4.67044))
--> FOAM Warning : 
    From function bool validTri(bool, const Foam::triSurface&, Foam::label)
    in file surfaceCheck.C at line 103
    triangle 23265 vertices ((2121 444 972) 0) has the same vertices as triangle 24497 vertices ((2121 972 444) 0) coords:3((3.2842 -0.118388 4.67044) (3.2842 -0.118388 4.57772) (3.2742 -0.118388 4.62408))
--> FOAM Warning : 
    From function bool validTri(bool, const Foam::triSurface&, Foam::label)
    in file surfaceCheck.C at line 103
    triangle 23266 vertices ((776 1715 875) 0) has the same vertices as triangle 24498 vertices ((776 875 1715) 0) coords:3((3.2542 -0.118388 4.62408) (3.2642 -0.118388 4.67044) (3.2642 -0.118388 4.62408))
--> FOAM Warning : 
    From function bool validTri(bool, const Foam::triSurface&, Foam::label)
    in file surfaceCheck.C at line 103
    triangle 23267 vertices ((776 155 103) 0) has the same vertices as triangle 24499 vertices ((776 103 155) 0) coords:3((3.2542 -0.118388 4.62408) (3.2542 -0.118388 4.57772) (3.2442 -0.118388 4.57772))
--> FOAM Warning : 
    From function bool validTri(bool, const Foam::triSurface&, Foam::label)
    in file surfaceCheck.C at line 103
    triangle 23268 vertices ((103 1400 776) 0) has the same vertices as triangle 24500 vertices ((103 776 1400) 0) coords:3((3.2442 -0.118388 4.57772) (3.2442 -0.118388 4.67044) (3.2542 -0.118388 4.62408))
--> FOAM Warning : 
    From function bool validTri(bool, const Foam::triSurface&, Foam::label)
    in file surfaceCheck.C at line 103
    triangle 23269 vertices ((1715 776 1400) 0) has the same vertices as triangle 24501 vertices ((1715 1400 776) 0) coords:3((3.2642 -0.118388 4.67044) (3.2542 -0.118388 4.62408) (3.2442 -0.118388 4.67044))
--> FOAM Warning : 
    From function bool validTri(bool, const Foam::triSurface&, Foam::label)
    in file surfaceCheck.C at line 103
    triangle 23270 vertices ((1827 2043 1966) 0) has the same vertices as triangle 24503 vertices ((1827 1966 2043) 0) coords:3((3.2642 -0.1186 4.67478) (3.2742 -0.1186 4.67478) (3.2742 -0.11844 4.6726))
--> FOAM Warning : 
    From function bool validTri(bool, const Foam::triSurface&, Foam::label)
    in file surfaceCheck.C at line 103
    triangle 23271 vertices ((1827 1966 1757) 0) has the same vertices as triangle 24502 vertices ((1827 1757 1966) 0) coords:3((3.2642 -0.1186 4.67478) (3.2742 -0.11844 4.6726) (3.2642 -0.11844 4.6726))
--> FOAM Warning : 
    From function bool validTri(bool, const Foam::triSurface&, Foam::label)
    in file surfaceCheck.C at line 103
    triangle 23272 vertices ((1662 1827 1757) 0) has the same vertices as triangle 24505 vertices ((1662 1757 1827) 0) coords:3((3.2542 -0.1186 4.67478) (3.2642 -0.1186 4.67478) (3.2642 -0.11844 4.6726))
--> FOAM Warning : 
    From function bool validTri(bool, const Foam::triSurface&, Foam::label)
    in file surfaceCheck.C at line 103
    triangle 23273 vertices ((1662 1757 1620) 0) has the same vertices as triangle 24504 vertices ((1662 1620 1757) 0) coords:3((3.2542 -0.1186 4.67478) (3.2642 -0.11844 4.6726) (3.2542 -0.11844 4.6726))
--> FOAM Warning : 
    From function bool validTri(bool, const Foam::triSurface&, Foam::label)
    in file surfaceCheck.C at line 103
    triangle 23274 vertices ((1947 2159 2106) 0) has the same vertices as triangle 24507 vertices ((1947 2106 2159) 0) coords:3((3.2642 -0.119212 4.67896) (3.2742 -0.119212 4.67896) (3.2742 -0.118852 4.67686))
--> FOAM Warning : 
    From function bool validTri(bool, const Foam::triSurface&, Foam::label)
    in file surfaceCheck.C at line 103
    triangle 23275 vertices ((1947 2106 1883) 0) has the same vertices as triangle 24506 vertices ((1947 1883 2106) 0) coords:3((3.2642 -0.119212 4.67896) (3.2742 -0.118852 4.67686) (3.2642 -0.118852 4.67686))
--> FOAM Warning : 
    From function bool validTri(bool, const Foam::triSurface&, Foam::label)
    in file surfaceCheck.C at line 103
    triangle 23276 vertices ((1883 2106 2043) 0) has the same vertices as triangle 24509 vertices ((1883 2043 2106) 0) coords:3((3.2642 -0.118852 4.67686) (3.2742 -0.118852 4.67686) (3.2742 -0.1186 4.67478))
--> FOAM Warning : 
    From function bool validTri(bool, const Foam::triSurface&, Foam::label)
    in file surfaceCheck.C at line 103
    triangle 23277 vertices ((1883 2043 1827) 0) has the same vertices as triangle 24508 vertices ((1883 1827 2043) 0) coords:3((3.2642 -0.118852 4.67686) (3.2742 -0.1186 4.67478) (3.2642 -0.1186 4.67478))
--> FOAM Warning : 
    From function bool validTri(bool, const Foam::triSurface&, Foam::label)
    in file surfaceCheck.C at line 103
    triangle 23278 vertices ((1703 1883 1827) 0) has the same vertices as triangle 24511 vertices ((1703 1827 1883) 0) coords:3((3.2542 -0.118852 4.67686) (3.2642 -0.118852 4.67686) (3.2642 -0.1186 4.67478))
--> FOAM Warning : 
    From function bool validTri(bool, const Foam::triSurface&, Foam::label)
    in file surfaceCheck.C at line 103
    triangle 23279 vertices ((1703 1827 1662) 0) has the same vertices as triangle 24510 vertices ((1703 1662 1827) 0) coords:3((3.2542 -0.118852 4.67686) (3.2642 -0.1186 4.67478) (3.2542 -0.1186 4.67478))
--> FOAM Warning : 
    From function bool validTri(bool, const Foam::triSurface&, Foam::label)
    in file surfaceCheck.C at line 103
    triangle 23280 vertices ((1747 1947 1883) 0) has the same vertices as triangle 24513 vertices ((1747 1883 1947) 0) coords:3((3.2542 -0.119212 4.67896) (3.2642 -0.119212 4.67896) (3.2642 -0.118852 4.67686))
--> FOAM Warning : 
    From function bool validTri(bool, const Foam::triSurface&, Foam::label)
    in file surfaceCheck.C at line 103
    triangle 23281 vertices ((1747 1883 1703) 0) has the same vertices as triangle 24512 vertices ((1747 1703 1883) 0) coords:3((3.2542 -0.119212 4.67896) (3.2642 -0.118852 4.67686) (3.2542 -0.118852 4.67686))
--> FOAM Warning : 
    From function bool validTri(bool, const Foam::triSurface&, Foam::label)
    in file surfaceCheck.C at line 103
    triangle 23282 vertices ((2092 2303 2216) 0) has the same vertices as triangle 24515 vertices ((2092 2216 2303) 0) coords:3((3.2642 -0.120248 4.68317) (3.2742 -0.120248 4.68317) (3.2742 -0.119672 4.68106))
--> FOAM Warning : 
    From function bool validTri(bool, const Foam::triSurface&, Foam::label)
    in file surfaceCheck.C at line 103
    triangle 23283 vertices ((2092 2216 2015) 0) has the same vertices as triangle 24514 vertices ((2092 2015 2216) 0) coords:3((3.2642 -0.120248 4.68317) (3.2742 -0.119672 4.68106) (3.2642 -0.119672 4.68106))
--> FOAM Warning : 
    From function bool validTri(bool, const Foam::triSurface&, Foam::label)
    in file surfaceCheck.C at line 103
    triangle 23284 vertices ((2015 2216 2159) 0) has the same vertices as triangle 24517 vertices ((2015 2159 2216) 0) coords:3((3.2642 -0.119672 4.68106) (3.2742 -0.119672 4.68106) (3.2742 -0.119212 4.67896))
--> FOAM Warning : 
    From function bool validTri(bool, const Foam::triSurface&, Foam::label)
    in file surfaceCheck.C at line 103
    triangle 23285 vertices ((2015 2159 1947) 0) has the same vertices as triangle 24516 vertices ((2015 1947 2159) 0) coords:3((3.2642 -0.119672 4.68106) (3.2742 -0.119212 4.67896) (3.2642 -0.119212 4.67896))
--> FOAM Warning : 
    From function bool validTri(bool, const Foam::triSurface&, Foam::label)
    in file surfaceCheck.C at line 103
    triangle 23286 vertices ((1799 2015 1947) 0) has the same vertices as triangle 24519 vertices ((1799 1947 2015) 0) coords:3((3.2542 -0.119672 4.68106) (3.2642 -0.119672 4.68106) (3.2642 -0.119212 4.67896))
--> FOAM Warning : 
    From function bool validTri(bool, const Foam::triSurface&, Foam::label)
    in file surfaceCheck.C at line 103
    triangle 23287 vertices ((1799 1947 1747) 0) has the same vertices as triangle 24518 vertices ((1799 1747 1947) 0) coords:3((3.2542 -0.119672 4.68106) (3.2642 -0.119212 4.67896) (3.2542 -0.119212 4.67896))
--> FOAM Warning : 
    From function bool validTri(bool, const Foam::triSurface&, Foam::label)
    in file surfaceCheck.C at line 103
    triangle 23288 vertices ((1865 2092 2015) 0) has the same vertices as triangle 24521 vertices ((1865 2015 2092) 0) coords:3((3.2542 -0.120248 4.68317) (3.2642 -0.120248 4.68317) (3.2642 -0.119672 4.68106))
--> FOAM Warning : 
    From function bool validTri(bool, const Foam::triSurface&, Foam::label)
    in file surfaceCheck.C at line 103
    triangle 23289 vertices ((1865 2015 1799) 0) has the same vertices as triangle 24520 vertices ((1865 1799 2015) 0) coords:3((3.2542 -0.120248 4.68317) (3.2642 -0.119672 4.68106) (3.2542 -0.119672 4.68106))
--> FOAM Warning : 
    From function bool validTri(bool, const Foam::triSurface&, Foam::label)
    in file surfaceCheck.C at line 103
    triangle 23290 vertices ((2200 2457 2379) 0) has the same vertices as triangle 24523 vertices ((2200 2379 2457) 0) coords:3((3.2642 -0.121728 4.68737) (3.2742 -0.121728 4.68737) (3.2742 -0.120932 4.68528))
--> FOAM Warning : 
    From function bool validTri(bool, const Foam::triSurface&, Foam::label)
    in file surfaceCheck.C at line 103
    triangle 23291 vertices ((2200 2379 2143) 0) has the same vertices as triangle 24522 vertices ((2200 2143 2379) 0) coords:3((3.2642 -0.121728 4.68737) (3.2742 -0.120932 4.68528) (3.2642 -0.120932 4.68528))
--> FOAM Warning : 
    From function bool validTri(bool, const Foam::triSurface&, Foam::label)
    in file surfaceCheck.C at line 103
    triangle 23292 vertices ((2143 2379 2303) 0) has the same vertices as triangle 24525 vertices ((2143 2303 2379) 0) coords:3((3.2642 -0.120932 4.68528) (3.2742 -0.120932 4.68528) (3.2742 -0.120248 4.68317))
--> FOAM Warning : 
    From function bool validTri(bool, const Foam::triSurface&, Foam::label)
    in file surfaceCheck.C at line 103
    triangle 23293 vertices ((2143 2303 2092) 0) has the same vertices as triangle 24524 vertices ((2143 2092 2303) 0) coords:3((3.2642 -0.120932 4.68528) (3.2742 -0.120248 4.68317) (3.2642 -0.120248 4.68317))
--> FOAM Warning : 
    From function bool validTri(bool, const Foam::triSurface&, Foam::label)
    in file surfaceCheck.C at line 103
    triangle 23294 vertices ((1928 2143 2092) 0) has the same vertices as triangle 24527 vertices ((1928 2092 2143) 0) coords:3((3.2542 -0.120932 4.68528) (3.2642 -0.120932 4.68528) (3.2642 -0.120248 4.68317))
--> FOAM Warning : 
    From function bool validTri(bool, const Foam::triSurface&, Foam::label)
    in file surfaceCheck.C at line 103
    triangle 23295 vertices ((1928 2092 1865) 0) has the same vertices as triangle 24526 vertices ((1928 1865 2092) 0) coords:3((3.2542 -0.120932 4.68528) (3.2642 -0.120248 4.68317) (3.2542 -0.120248 4.68317))
--> FOAM Warning : 
    From function bool validTri(bool, const Foam::triSurface&, Foam::label)
    in file surfaceCheck.C at line 103
    triangle 23296 vertices ((1994 2200 2143) 0) has the same vertices as triangle 24529 vertices ((1994 2143 2200) 0) coords:3((3.2542 -0.121728 4.68737) (3.2642 -0.121728 4.68737) (3.2642 -0.120932 4.68528))
--> FOAM Warning : 
    From function bool validTri(bool, const Foam::triSurface&, Foam::label)
    in file surfaceCheck.C at line 103
    triangle 23297 vertices ((1994 2143 1928) 0) has the same vertices as triangle 24528 vertices ((1994 1928 2143) 0) coords:3((3.2542 -0.121728 4.68737) (3.2642 -0.120932 4.68528) (3.2542 -0.120932 4.68528))
--> FOAM Warning : 
    From function bool validTri(bool, const Foam::triSurface&, Foam::label)
    in file surfaceCheck.C at line 103
    triangle 23298 vertices ((2489 2700 2652) 0) has the same vertices as triangle 24531 vertices ((2489 2652 2700) 0) coords:3((3.2642 -0.125968 4.6953) (3.2742 -0.125968 4.6953) (3.2742 -0.12476 4.69341))
--> FOAM Warning : 
    From function bool validTri(bool, const Foam::triSurface&, Foam::label)
    in file surfaceCheck.C at line 103
    triangle 23299 vertices ((2489 2652 2428) 0) has the same vertices as triangle 24530 vertices ((2489 2428 2652) 0) coords:3((3.2642 -0.125968 4.6953) (3.2742 -0.12476 4.69341) (3.2642 -0.12476 4.69341))
--> FOAM Warning : 
    From function bool validTri(bool, const Foam::triSurface&, Foam::label)
    in file surfaceCheck.C at line 103
    triangle 23300 vertices ((2428 2652 2585) 0) has the same vertices as triangle 24533 vertices ((2428 2585 2652) 0) coords:3((3.2642 -0.12476 4.69341) (3.2742 -0.12476 4.69341) (3.2742 -0.123656 4.69146))
--> FOAM Warning : 
    From function bool validTri(bool, const Foam::triSurface&, Foam::label)
    in file surfaceCheck.C at line 103
    triangle 23301 vertices ((2428 2585 2355) 0) has the same vertices as triangle 24532 vertices ((2428 2355 2585) 0) coords:3((3.2642 -0.12476 4.69341) (3.2742 -0.123656 4.69146) (3.2642 -0.123656 4.69146))
--> FOAM Warning : 
    From function bool validTri(bool, const Foam::triSurface&, Foam::label)
    in file surfaceCheck.C at line 103
    triangle 23302 vertices ((2180 2428 2355) 0) has the same vertices as triangle 24535 vertices ((2180 2355 2428) 0) coords:3((3.2542 -0.12476 4.69341) (3.2642 -0.12476 4.69341) (3.2642 -0.123656 4.69146))
--> FOAM Warning : 
    From function bool validTri(bool, const Foam::triSurface&, Foam::label)
    in file surfaceCheck.C at line 103
    triangle 23303 vertices ((2180 2355 2130) 0) has the same vertices as triangle 24534 vertices ((2180 2130 2355) 0) coords:3((3.2542 -0.12476 4.69341) (3.2642 -0.123656 4.69146) (3.2542 -0.123656 4.69146))
--> FOAM Warning : 
    From function bool validTri(bool, const Foam::triSurface&, Foam::label)
    in file surfaceCheck.C at line 103
    triangle 23304 vertices ((2235 2489 2428) 0) has the same vertices as triangle 24537 vertices ((2235 2428 2489) 0) coords:3((3.2542 -0.125968 4.6953) (3.2642 -0.125968 4.6953) (3.2642 -0.12476 4.69341))
--> FOAM Warning : 
    From function bool validTri(bool, const Foam::triSurface&, Foam::label)
    in file surfaceCheck.C at line 103
    triangle 23305 vertices ((2235 2428 2180) 0) has the same vertices as triangle 24536 vertices ((2235 2180 2428) 0) coords:3((3.2542 -0.125968 4.6953) (3.2642 -0.12476 4.69341) (3.2542 -0.12476 4.69341))
--> FOAM Warning : 
    From function bool validTri(bool, const Foam::triSurface&, Foam::label)
    in file surfaceCheck.C at line 103
    triangle 23306 vertices ((2606 2842 2768) 0) has the same vertices as triangle 24539 vertices ((2606 2768 2842) 0) coords:3((3.2642 -0.128684 4.69893) (3.2742 -0.128684 4.69893) (3.2742 -0.12728 4.69715))
--> FOAM Warning : 
    From function bool validTri(bool, const Foam::triSurface&, Foam::label)
    in file surfaceCheck.C at line 103
    triangle 23307 vertices ((2606 2768 2549) 0) has the same vertices as triangle 24538 vertices ((2606 2549 2768) 0) coords:3((3.2642 -0.128684 4.69893) (3.2742 -0.12728 4.69715) (3.2642 -0.12728 4.69715))
--> FOAM Warning : 
    From function bool validTri(bool, const Foam::triSurface&, Foam::label)
    in file surfaceCheck.C at line 103
    triangle 23308 vertices ((2549 2768 2700) 0) has the same vertices as triangle 24541 vertices ((2549 2700 2768) 0) coords:3((3.2642 -0.12728 4.69715) (3.2742 -0.12728 4.69715) (3.2742 -0.125968 4.6953))
--> FOAM Warning : 
    From function bool validTri(bool, const Foam::triSurface&, Foam::label)
    in file surfaceCheck.C at line 103
    triangle 23309 vertices ((2549 2700 2489) 0) has the same vertices as triangle 24540 vertices ((2549 2489 2700) 0) coords:3((3.2642 -0.12728 4.69715) (3.2742 -0.125968 4.6953) (3.2642 -0.125968 4.6953))
--> FOAM Warning : 
    From function bool validTri(bool, const Foam::triSurface&, Foam::label)
    in file surfaceCheck.C at line 103
    triangle 23310 vertices ((2315 2549 2489) 0) has the same vertices as triangle 24543 vertices ((2315 2489 2549) 0) coords:3((3.2542 -0.12728 4.69715) (3.2642 -0.12728 4.69715) (3.2642 -0.125968 4.6953))
--> FOAM Warning : 
    From function bool validTri(bool, const Foam::triSurface&, Foam::label)
    in file surfaceCheck.C at line 103
    triangle 23311 vertices ((2315 2489 2235) 0) has the same vertices as triangle 24542 vertices ((2315 2235 2489) 0) coords:3((3.2542 -0.12728 4.69715) (3.2642 -0.125968 4.6953) (3.2542 -0.125968 4.6953))
--> FOAM Warning : 
    From function bool validTri(bool, const Foam::triSurface&, Foam::label)
    in file surfaceCheck.C at line 103
    triangle 23312 vertices ((2374 2606 2549) 0) has the same vertices as triangle 24545 vertices ((2374 2549 2606) 0) coords:3((3.2542 -0.128684 4.69893) (3.2642 -0.128684 4.69893) (3.2642 -0.12728 4.69715))
--> FOAM Warning : 
    From function bool validTri(bool, const Foam::triSurface&, Foam::label)
    in file surfaceCheck.C at line 103
    triangle 23313 vertices ((2374 2549 2315) 0) has the same vertices as triangle 24544 vertices ((2374 2315 2549) 0) coords:3((3.2542 -0.128684 4.69893) (3.2642 -0.12728 4.69715) (3.2542 -0.12728 4.69715))
--> FOAM Warning : 
    From function bool validTri(bool, const Foam::triSurface&, Foam::label)
    in file surfaceCheck.C at line 103
    triangle 23314 vertices ((2827 3075 3024) 0) has the same vertices as triangle 24547 vertices ((2827 3024 3075) 0) coords:3((3.2642 -0.135176 4.70529) (3.2742 -0.135176 4.70529) (3.2742 -0.133436 4.70383))
--> FOAM Warning : 
    From function bool validTri(bool, const Foam::triSurface&, Foam::label)
    in file surfaceCheck.C at line 103
    triangle 23315 vertices ((2827 3024 2764) 0) has the same vertices as triangle 24546 vertices ((2827 2764 3024) 0) coords:3((3.2642 -0.135176 4.70529) (3.2742 -0.133436 4.70383) (3.2642 -0.133436 4.70383))
--> FOAM Warning : 
    From function bool validTri(bool, const Foam::triSurface&, Foam::label)
    in file surfaceCheck.C at line 103
    triangle 23316 vertices ((2764 3024 2969) 0) has the same vertices as triangle 24549 vertices ((2764 2969 3024) 0) coords:3((3.2642 -0.133436 4.70383) (3.2742 -0.133436 4.70383) (3.2742 -0.131768 4.70228))
--> FOAM Warning : 
    From function bool validTri(bool, const Foam::triSurface&, Foam::label)
    in file surfaceCheck.C at line 103
    triangle 23317 vertices ((2764 2969 2710) 0) has the same vertices as triangle 24548 vertices ((2764 2710 2969) 0) coords:3((3.2642 -0.133436 4.70383) (3.2742 -0.131768 4.70228) (3.2642 -0.131768 4.70228))
--> FOAM Warning : 
    From function bool validTri(bool, const Foam::triSurface&, Foam::label)
    in file surfaceCheck.C at line 103
    triangle 23318 vertices ((2546 2764 2710) 0) has the same vertices as triangle 24551 vertices ((2546 2710 2764) 0) coords:3((3.2542 -0.133436 4.70383) (3.2642 -0.133436 4.70383) (3.2642 -0.131768 4.70228))
--> FOAM Warning : 
    From function bool validTri(bool, const Foam::triSurface&, Foam::label)
    in file surfaceCheck.C at line 103
    triangle 23319 vertices ((2546 2710 2498) 0) has the same vertices as triangle 24550 vertices ((2546 2498 2710) 0) coords:3((3.2542 -0.133436 4.70383) (3.2642 -0.131768 4.70228) (3.2542 -0.131768 4.70228))
--> FOAM Warning : 
    From function bool validTri(bool, const Foam::triSurface&, Foam::label)
    in file surfaceCheck.C at line 103
    triangle 23320 vertices ((2591 2827 2764) 0) has the same vertices as triangle 24553 vertices ((2591 2764 2827) 0) coords:3((3.2542 -0.135176 4.70529) (3.2642 -0.135176 4.70529) (3.2642 -0.133436 4.70383))
--> FOAM Warning : 
    From function bool validTri(bool, const Foam::triSurface&, Foam::label)
    in file surfaceCheck.C at line 103
    triangle 23321 vertices ((2591 2764 2546) 0) has the same vertices as triangle 24552 vertices ((2591 2546 2764) 0) coords:3((3.2542 -0.135176 4.70529) (3.2642 -0.133436 4.70383) (3.2542 -0.133436 4.70383))
--> FOAM Warning : 
    From function bool validTri(bool, const Foam::triSurface&, Foam::label)
    in file surfaceCheck.C at line 103
    triangle 23322 vertices ((2927 3163 3121) 0) has the same vertices as triangle 24555 vertices ((2927 3121 3163) 0) coords:3((3.2642 -0.138852 4.70792) (3.2742 -0.138852 4.70792) (3.2742 -0.136984 4.70666))
--> FOAM Warning : 
    From function bool validTri(bool, const Foam::triSurface&, Foam::label)
    in file surfaceCheck.C at line 103
    triangle 23323 vertices ((2927 3121 2877) 0) has the same vertices as triangle 24554 vertices ((2927 2877 3121) 0) coords:3((3.2642 -0.138852 4.70792) (3.2742 -0.136984 4.70666) (3.2642 -0.136984 4.70666))
--> FOAM Warning : 
    From function bool validTri(bool, const Foam::triSurface&, Foam::label)
    in file surfaceCheck.C at line 103
    triangle 23324 vertices ((2877 3121 3075) 0) has the same vertices as triangle 24557 vertices ((2877 3075 3121) 0) coords:3((3.2642 -0.136984 4.70666) (3.2742 -0.136984 4.70666) (3.2742 -0.135176 4.70529))
--> FOAM Warning : 
    From function bool validTri(bool, const Foam::triSurface&, Foam::label)
    in file surfaceCheck.C at line 103
    triangle 23325 vertices ((2877 3075 2827) 0) has the same vertices as triangle 24556 vertices ((2877 2827 3075) 0) coords:3((3.2642 -0.136984 4.70666) (3.2742 -0.135176 4.70529) (3.2642 -0.135176 4.70529))
--> FOAM Warning : 
    From function bool validTri(bool, const Foam::triSurface&, Foam::label)
    in file surfaceCheck.C at line 103
    triangle 23326 vertices ((2642 2877 2827) 0) has the same vertices as triangle 24559 vertices ((2642 2827 2877) 0) coords:3((3.2542 -0.136984 4.70666) (3.2642 -0.136984 4.70666) (3.2642 -0.135176 4.70529))
--> FOAM Warning : 
    From function bool validTri(bool, const Foam::triSurface&, Foam::label)
    in file surfaceCheck.C at line 103
    triangle 23327 vertices ((2642 2827 2591) 0) has the same vertices as triangle 24558 vertices ((2642 2591 2827) 0) coords:3((3.2542 -0.136984 4.70666) (3.2642 -0.135176 4.70529) (3.2542 -0.135176 4.70529))
--> FOAM Warning : 
    From function bool validTri(bool, const Foam::triSurface&, Foam::label)
    in file surfaceCheck.C at line 103
    triangle 23328 vertices ((2680 2927 2877) 0) has the same vertices as triangle 24561 vertices ((2680 2877 2927) 0) coords:3((3.2542 -0.138852 4.70792) (3.2642 -0.138852 4.70792) (3.2642 -0.136984 4.70666))
--> FOAM Warning : 
    From function bool validTri(bool, const Foam::triSurface&, Foam::label)
    in file surfaceCheck.C at line 103
    triangle 23329 vertices ((2680 2877 2642) 0) has the same vertices as triangle 24560 vertices ((2680 2642 2877) 0) coords:3((3.2542 -0.138852 4.70792) (3.2642 -0.136984 4.70666) (3.2542 -0.136984 4.70666))
--> FOAM Warning : 
    From function bool validTri(bool, const Foam::triSurface&, Foam::label)
    in file surfaceCheck.C at line 103
    triangle 23330 vertices ((3010 3232 3205) 0) has the same vertices as triangle 24563 vertices ((3010 3205 3232) 0) coords:3((3.2642 -0.142732 4.71015) (3.2742 -0.142732 4.71015) (3.2742 -0.140772 4.70909))
--> FOAM Warning : 
    From function bool validTri(bool, const Foam::triSurface&, Foam::label)
    in file surfaceCheck.C at line 103
    triangle 23331 vertices ((3010 3205 2972) 0) has the same vertices as triangle 24562 vertices ((3010 2972 3205) 0) coords:3((3.2642 -0.142732 4.71015) (3.2742 -0.140772 4.70909) (3.2642 -0.140772 4.70909))
--> FOAM Warning : 
    From function bool validTri(bool, const Foam::triSurface&, Foam::label)
    in file surfaceCheck.C at line 103
    triangle 23332 vertices ((2972 3205 3163) 0) has the same vertices as triangle 24565 vertices ((2972 3163 3205) 0) coords:3((3.2642 -0.140772 4.70909) (3.2742 -0.140772 4.70909) (3.2742 -0.138852 4.70792))
--> FOAM Warning : 
    From function bool validTri(bool, const Foam::triSurface&, Foam::label)
    in file surfaceCheck.C at line 103
    triangle 23333 vertices ((2972 3163 2927) 0) has the same vertices as triangle 24564 vertices ((2972 2927 3163) 0) coords:3((3.2642 -0.140772 4.70909) (3.2742 -0.138852 4.70792) (3.2642 -0.138852 4.70792))
--> FOAM Warning : 
    From function bool validTri(bool, const Foam::triSurface&, Foam::label)
    in file surfaceCheck.C at line 103
    triangle 23334 vertices ((2718 2972 2927) 0) has the same vertices as triangle 24567 vertices ((2718 2927 2972) 0) coords:3((3.2542 -0.140772 4.70909) (3.2642 -0.140772 4.70909) (3.2642 -0.138852 4.70792))
--> FOAM Warning : 
    From function bool validTri(bool, const Foam::triSurface&, Foam::label)
    in file surfaceCheck.C at line 103
    triangle 23335 vertices ((2718 2927 2680) 0) has the same vertices as triangle 24566 vertices ((2718 2680 2927) 0) coords:3((3.2542 -0.140772 4.70909) (3.2642 -0.138852 4.70792) (3.2542 -0.138852 4.70792))
--> FOAM Warning : 
    From function bool validTri(bool, const Foam::triSurface&, Foam::label)
    in file surfaceCheck.C at line 103
    triangle 23336 vertices ((2755 3010 2972) 0) has the same vertices as triangle 24569 vertices ((2755 2972 3010) 0) coords:3((3.2542 -0.142732 4.71015) (3.2642 -0.142732 4.71015) (3.2642 -0.140772 4.70909))
--> FOAM Warning : 
    From function bool validTri(bool, const Foam::triSurface&, Foam::label)
    in file surfaceCheck.C at line 103
    triangle 23337 vertices ((2755 2972 2718) 0) has the same vertices as triangle 24568 vertices ((2755 2718 2972) 0) coords:3((3.2542 -0.142732 4.71015) (3.2642 -0.140772 4.70909) (3.2542 -0.140772 4.70909))
--> FOAM Warning : 
    From function bool validTri(bool, const Foam::triSurface&, Foam::label)
    in file surfaceCheck.C at line 103
    triangle 23338 vertices ((3077 3304 3274) 0) has the same vertices as triangle 24571 vertices ((3077 3274 3304) 0) coords:3((3.2642 -0.146752 4.71195) (3.2742 -0.146752 4.71195) (3.2742 -0.144728 4.71111))
--> FOAM Warning : 
    From function bool validTri(bool, const Foam::triSurface&, Foam::label)
    in file surfaceCheck.C at line 103
    triangle 23339 vertices ((3077 3274 3042) 0) has the same vertices as triangle 24570 vertices ((3077 3042 3274) 0) coords:3((3.2642 -0.146752 4.71195) (3.2742 -0.144728 4.71111) (3.2642 -0.144728 4.71111))
--> FOAM Warning : 
    From function bool validTri(bool, const Foam::triSurface&, Foam::label)
    in file surfaceCheck.C at line 103
    triangle 23340 vertices ((3042 3274 3232) 0) has the same vertices as triangle 24573 vertices ((3042 3232 3274) 0) coords:3((3.2642 -0.144728 4.71111) (3.2742 -0.144728 4.71111) (3.2742 -0.142732 4.71015))
--> FOAM Warning : 
    From function bool validTri(bool, const Foam::triSurface&, Foam::label)
    in file surfaceCheck.C at line 103
    triangle 23341 vertices ((3042 3232 3010) 0) has the same vertices as triangle 24572 vertices ((3042 3010 3232) 0) coords:3((3.2642 -0.144728 4.71111) (3.2742 -0.142732 4.71015) (3.2642 -0.142732 4.71015))
--> FOAM Warning : 
    From function bool validTri(bool, const Foam::triSurface&, Foam::label)
    in file surfaceCheck.C at line 103
    triangle 23342 vertices ((2793 3042 3010) 0) has the same vertices as triangle 24575 vertices ((2793 3010 3042) 0) coords:3((3.2542 -0.144728 4.71111) (3.2642 -0.144728 4.71111) (3.2642 -0.142732 4.71015))
--> FOAM Warning : 
    From function bool validTri(bool, const Foam::triSurface&, Foam::label)
    in file surfaceCheck.C at line 103
    triangle 23343 vertices ((2793 3010 2755) 0) has the same vertices as triangle 24574 vertices ((2793 2755 3010) 0) coords:3((3.2542 -0.144728 4.71111) (3.2642 -0.142732 4.71015) (3.2542 -0.142732 4.71015))
--> FOAM Warning : 
    From function bool validTri(bool, const Foam::triSurface&, Foam::label)
    in file surfaceCheck.C at line 103
    triangle 23344 vertices ((2829 3077 3042) 0) has the same vertices as triangle 24577 vertices ((2829 3042 3077) 0) coords:3((3.2542 -0.146752 4.71195) (3.2642 -0.146752 4.71195) (3.2642 -0.144728 4.71111))
--> FOAM Warning : 
    From function bool validTri(bool, const Foam::triSurface&, Foam::label)
    in file surfaceCheck.C at line 103
    triangle 23345 vertices ((2829 3042 2793) 0) has the same vertices as triangle 24576 vertices ((2829 2793 3042) 0) coords:3((3.2542 -0.146752 4.71195) (3.2642 -0.144728 4.71111) (3.2542 -0.144728 4.71111))
--> FOAM Warning : 
    From function bool validTri(bool, const Foam::triSurface&, Foam::label)
    in file surfaceCheck.C at line 103
    triangle 23346 vertices ((3126 3357 3335) 0) has the same vertices as triangle 24579 vertices ((3126 3335 3357) 0) coords:3((3.2642 -0.15084 4.71332) (3.2742 -0.15084 4.71332) (3.2742 -0.148792 4.71269))
--> FOAM Warning : 
    From function bool validTri(bool, const Foam::triSurface&, Foam::label)
    in file surfaceCheck.C at line 103
    triangle 23347 vertices ((3126 3335 3106) 0) has the same vertices as triangle 24578 vertices ((3126 3106 3335) 0) coords:3((3.2642 -0.15084 4.71332) (3.2742 -0.148792 4.71269) (3.2642 -0.148792 4.71269))
--> FOAM Warning : 
    From function bool validTri(bool, const Foam::triSurface&, Foam::label)
    in file surfaceCheck.C at line 103
    triangle 23348 vertices ((3106 3335 3304) 0) has the same vertices as triangle 24581 vertices ((3106 3304 3335) 0) coords:3((3.2642 -0.148792 4.71269) (3.2742 -0.148792 4.71269) (3.2742 -0.146752 4.71195))
--> FOAM Warning : 
    From function bool validTri(bool, const Foam::triSurface&, Foam::label)
    in file surfaceCheck.C at line 103
    triangle 23349 vertices ((3106 3304 3077) 0) has the same vertices as triangle 24580 vertices ((3106 3077 3304) 0) coords:3((3.2642 -0.148792 4.71269) (3.2742 -0.146752 4.71195) (3.2642 -0.146752 4.71195))
--> FOAM Warning : 
    From function bool validTri(bool, const Foam::triSurface&, Foam::label)
    in file surfaceCheck.C at line 103
    triangle 23350 vertices ((2860 3106 3077) 0) has the same vertices as triangle 24583 vertices ((2860 3077 3106) 0) coords:3((3.2542 -0.148792 4.71269) (3.2642 -0.148792 4.71269) (3.2642 -0.146752 4.71195))
--> FOAM Warning : 
    From function bool validTri(bool, const Foam::triSurface&, Foam::label)
    in file surfaceCheck.C at line 103
    triangle 23351 vertices ((2860 3077 2829) 0) has the same vertices as triangle 24582 vertices ((2860 2829 3077) 0) coords:3((3.2542 -0.148792 4.71269) (3.2642 -0.146752 4.71195) (3.2542 -0.146752 4.71195))
--> FOAM Warning : 
    From function bool validTri(bool, const Foam::triSurface&, Foam::label)
    in file surfaceCheck.C at line 103
    triangle 23352 vertices ((2884 3126 3106) 0) has the same vertices as triangle 24585 vertices ((2884 3106 3126) 0) coords:3((3.2542 -0.15084 4.71332) (3.2642 -0.15084 4.71332) (3.2642 -0.148792 4.71269))
--> FOAM Warning : 
    From function bool validTri(bool, const Foam::triSurface&, Foam::label)
    in file surfaceCheck.C at line 103
    triangle 23353 vertices ((2884 3106 2860) 0) has the same vertices as triangle 24584 vertices ((2884 2860 3106) 0) coords:3((3.2542 -0.15084 4.71332) (3.2642 -0.148792 4.71269) (3.2542 -0.148792 4.71269))
--> FOAM Warning : 
    From function bool validTri(bool, const Foam::triSurface&, Foam::label)
    in file surfaceCheck.C at line 103
    triangle 23354 vertices ((3160 3389 3375) 0) has the same vertices as triangle 24587 vertices ((3160 3375 3389) 0) coords:3((3.2642 -0.15494 4.71428) (3.2742 -0.15494 4.71428) (3.2742 -0.152896 4.71385))
--> FOAM Warning : 
    From function bool validTri(bool, const Foam::triSurface&, Foam::label)
    in file surfaceCheck.C at line 103
    triangle 23355 vertices ((3160 3375 3143) 0) has the same vertices as triangle 24586 vertices ((3160 3143 3375) 0) coords:3((3.2642 -0.15494 4.71428) (3.2742 -0.152896 4.71385) (3.2642 -0.152896 4.71385))
--> FOAM Warning : 
    From function bool validTri(bool, const Foam::triSurface&, Foam::label)
    in file surfaceCheck.C at line 103
    triangle 23356 vertices ((3143 3375 3357) 0) has the same vertices as triangle 24589 vertices ((3143 3357 3375) 0) coords:3((3.2642 -0.152896 4.71385) (3.2742 -0.152896 4.71385) (3.2742 -0.15084 4.71332))
--> FOAM Warning : 
    From function bool validTri(bool, const Foam::triSurface&, Foam::label)
    in file surfaceCheck.C at line 103
    triangle 23357 vertices ((3143 3357 3126) 0) has the same vertices as triangle 24588 vertices ((3143 3126 3357) 0) coords:3((3.2642 -0.152896 4.71385) (3.2742 -0.15084 4.71332) (3.2642 -0.15084 4.71332))
--> FOAM Warning : 
    From function bool validTri(bool, const Foam::triSurface&, Foam::label)
    in file surfaceCheck.C at line 103
    triangle 23358 vertices ((2906 3143 3126) 0) has the same vertices as triangle 24591 vertices ((2906 3126 3143) 0) coords:3((3.2542 -0.152896 4.71385) (3.2642 -0.152896 4.71385) (3.2642 -0.15084 4.71332))
--> FOAM Warning : 
    From function bool validTri(bool, const Foam::triSurface&, Foam::label)
    in file surfaceCheck.C at line 103
    triangle 23359 vertices ((2906 3126 2884) 0) has the same vertices as triangle 24590 vertices ((2906 2884 3126) 0) coords:3((3.2542 -0.152896 4.71385) (3.2642 -0.15084 4.71332) (3.2542 -0.15084 4.71332))
--> FOAM Warning : 
    From function bool validTri(bool, const Foam::triSurface&, Foam::label)
    in file surfaceCheck.C at line 103
    triangle 23360 vertices ((2924 3160 3143) 0) has the same vertices as triangle 24593 vertices ((2924 3143 3160) 0) coords:3((3.2542 -0.15494 4.71428) (3.2642 -0.15494 4.71428) (3.2642 -0.152896 4.71385))
--> FOAM Warning : 
    From function bool validTri(bool, const Foam::triSurface&, Foam::label)
    in file surfaceCheck.C at line 103
    triangle 23361 vertices ((2924 3143 2906) 0) has the same vertices as triangle 24592 vertices ((2924 2906 3143) 0) coords:3((3.2542 -0.15494 4.71428) (3.2642 -0.152896 4.71385) (3.2542 -0.152896 4.71385))
--> FOAM Warning : 
    From function bool validTri(bool, const Foam::triSurface&, Foam::label)
    in file surfaceCheck.C at line 103
    triangle 23362 vertices ((3191 3420 3415) 0) has the same vertices as triangle 24595 vertices ((3191 3415 3420) 0) coords:3((3.2642 -0.162944 4.715) (3.2742 -0.162944 4.715) (3.2742 -0.161104 4.71496))
--> FOAM Warning : 
    From function bool validTri(bool, const Foam::triSurface&, Foam::label)
    in file surfaceCheck.C at line 103
    triangle 23363 vertices ((3191 3415 3186) 0) has the same vertices as triangle 24594 vertices ((3191 3186 3415) 0) coords:3((3.2642 -0.162944 4.715) (3.2742 -0.161104 4.71496) (3.2642 -0.161104 4.71496))
--> FOAM Warning : 
    From function bool validTri(bool, const Foam::triSurface&, Foam::label)
    in file surfaceCheck.C at line 103
    triangle 23364 vertices ((3186 3415 3412) 0) has the same vertices as triangle 24597 vertices ((3186 3412 3415) 0) coords:3((3.2642 -0.161104 4.71496) (3.2742 -0.161104 4.71496) (3.2742 -0.159236 4.71485))
--> FOAM Warning : 
    From function bool validTri(bool, const Foam::triSurface&, Foam::label)
    in file surfaceCheck.C at line 103
    triangle 23365 vertices ((3186 3412 3180) 0) has the same vertices as triangle 24596 vertices ((3186 3180 3412) 0) coords:3((3.2642 -0.161104 4.71496) (3.2742 -0.159236 4.71485) (3.2642 -0.159236 4.71485))
--> FOAM Warning : 
    From function bool validTri(bool, const Foam::triSurface&, Foam::label)
    in file surfaceCheck.C at line 103
    triangle 23366 vertices ((2954 3186 3180) 0) has the same vertices as triangle 24599 vertices ((2954 3180 3186) 0) coords:3((3.2542 -0.161104 4.71496) (3.2642 -0.161104 4.71496) (3.2642 -0.159236 4.71485))
--> FOAM Warning : 
    From function bool validTri(bool, const Foam::triSurface&, Foam::label)
    in file surfaceCheck.C at line 103
    triangle 23367 vertices ((2954 3180 2947) 0) has the same vertices as triangle 24598 vertices ((2954 2947 3180) 0) coords:3((3.2542 -0.161104 4.71496) (3.2642 -0.159236 4.71485) (3.2542 -0.159236 4.71485))
--> FOAM Warning : 
    From function bool validTri(bool, const Foam::triSurface&, Foam::label)
    in file surfaceCheck.C at line 103
    triangle 23368 vertices ((2958 3191 3186) 0) has the same vertices as triangle 24601 vertices ((2958 3186 3191) 0) coords:3((3.2542 -0.162944 4.715) (3.2642 -0.162944 4.715) (3.2642 -0.161104 4.71496))
--> FOAM Warning : 
    From function bool validTri(bool, const Foam::triSurface&, Foam::label)
    in file surfaceCheck.C at line 103
    triangle 23369 vertices ((2958 3186 2954) 0) has the same vertices as triangle 24600 vertices ((2958 2954 3186) 0) coords:3((3.2542 -0.162944 4.715) (3.2642 -0.161104 4.71496) (3.2542 -0.161104 4.71496))
--> FOAM Warning : 
    From function bool validTri(bool, const Foam::triSurface&, Foam::label)
    in file surfaceCheck.C at line 103
    triangle 23370 vertices ((3174 3406 3413) 0) has the same vertices as triangle 24603 vertices ((3174 3413 3406) 0) coords:3((3.2642 -0.171456 4.71418) (3.2742 -0.171456 4.71418) (3.2742 -0.16936 4.71454))
--> FOAM Warning : 
    From function bool validTri(bool, const Foam::triSurface&, Foam::label)
    in file surfaceCheck.C at line 103
    triangle 23371 vertices ((3174 3413 3182) 0) has the same vertices as triangle 24602 vertices ((3174 3182 3413) 0) coords:3((3.2642 -0.171456 4.71418) (3.2742 -0.16936 4.71454) (3.2642 -0.16936 4.71454))
--> FOAM Warning : 
    From function bool validTri(bool, const Foam::triSurface&, Foam::label)
    in file surfaceCheck.C at line 103
    triangle 23372 vertices ((3182 3413 3417) 0) has the same vertices as triangle 24605 vertices ((3182 3417 3413) 0) coords:3((3.2642 -0.16936 4.71454) (3.2742 -0.16936 4.71454) (3.2742 -0.167284 4.71479))
--> FOAM Warning : 
    From function bool validTri(bool, const Foam::triSurface&, Foam::label)
    in file surfaceCheck.C at line 103
    triangle 23373 vertices ((3182 3417 3188) 0) has the same vertices as triangle 24604 vertices ((3182 3188 3417) 0) coords:3((3.2642 -0.16936 4.71454) (3.2742 -0.167284 4.71479) (3.2642 -0.167284 4.71479))
--> FOAM Warning : 
    From function bool validTri(bool, const Foam::triSurface&, Foam::label)
    in file surfaceCheck.C at line 103
    triangle 23374 vertices ((2950 3182 3188) 0) has the same vertices as triangle 24607 vertices ((2950 3188 3182) 0) coords:3((3.2542 -0.16936 4.71454) (3.2642 -0.16936 4.71454) (3.2642 -0.167284 4.71479))
--> FOAM Warning : 
    From function bool validTri(bool, const Foam::triSurface&, Foam::label)
    in file surfaceCheck.C at line 103
    triangle 23375 vertices ((2950 3188 2956) 0) has the same vertices as triangle 24606 vertices ((2950 2956 3188) 0) coords:3((3.2542 -0.16936 4.71454) (3.2642 -0.167284 4.71479) (3.2542 -0.167284 4.71479))
--> FOAM Warning : 
    From function bool validTri(bool, const Foam::triSurface&, Foam::label)
    in file surfaceCheck.C at line 103
    triangle 23376 vertices ((2938 3174 3182) 0) has the same vertices as triangle 24609 vertices ((2938 3182 3174) 0) coords:3((3.2542 -0.171456 4.71418) (3.2642 -0.171456 4.71418) (3.2642 -0.16936 4.71454))
--> FOAM Warning : 
    From function bool validTri(bool, const Foam::triSurface&, Foam::label)
    in file surfaceCheck.C at line 103
    triangle 23377 vertices ((2938 3182 2950) 0) has the same vertices as triangle 24608 vertices ((2938 2950 3182) 0) coords:3((3.2542 -0.171456 4.71418) (3.2642 -0.16936 4.71454) (3.2542 -0.16936 4.71454))
--> FOAM Warning : 
    From function bool validTri(bool, const Foam::triSurface&, Foam::label)
    in file surfaceCheck.C at line 103
    triangle 23378 vertices ((3145 3378 3395) 0) has the same vertices as triangle 24611 vertices ((3145 3395 3378) 0) coords:3((3.2642 -0.175676 4.71314) (3.2742 -0.175676 4.71314) (3.2742 -0.173564 4.71372))
--> FOAM Warning : 
    From function bool validTri(bool, const Foam::triSurface&, Foam::label)
    in file surfaceCheck.C at line 103
    triangle 23379 vertices ((3145 3395 3164) 0) has the same vertices as triangle 24610 vertices ((3145 3164 3395) 0) coords:3((3.2642 -0.175676 4.71314) (3.2742 -0.173564 4.71372) (3.2642 -0.173564 4.71372))
--> FOAM Warning : 
    From function bool validTri(bool, const Foam::triSurface&, Foam::label)
    in file surfaceCheck.C at line 103
    triangle 23380 vertices ((3164 3395 3406) 0) has the same vertices as triangle 24613 vertices ((3164 3406 3395) 0) coords:3((3.2642 -0.173564 4.71372) (3.2742 -0.173564 4.71372) (3.2742 -0.171456 4.71418))
--> FOAM Warning : 
    From function bool validTri(bool, const Foam::triSurface&, Foam::label)
    in file surfaceCheck.C at line 103
    triangle 23381 vertices ((3164 3406 3174) 0) has the same vertices as triangle 24612 vertices ((3164 3174 3406) 0) coords:3((3.2642 -0.173564 4.71372) (3.2742 -0.171456 4.71418) (3.2642 -0.171456 4.71418))
--> FOAM Warning : 
    From function bool validTri(bool, const Foam::triSurface&, Foam::label)
    in file surfaceCheck.C at line 103
    triangle 23382 vertices ((2930 3164 3174) 0) has the same vertices as triangle 24615 vertices ((2930 3174 3164) 0) coords:3((3.2542 -0.173564 4.71372) (3.2642 -0.173564 4.71372) (3.2642 -0.171456 4.71418))
--> FOAM Warning : 
    From function bool validTri(bool, const Foam::triSurface&, Foam::label)
    in file surfaceCheck.C at line 103
    triangle 23383 vertices ((2930 3174 2938) 0) has the same vertices as triangle 24614 vertices ((2930 2938 3174) 0) coords:3((3.2542 -0.173564 4.71372) (3.2642 -0.171456 4.71418) (3.2542 -0.171456 4.71418))
--> FOAM Warning : 
    From function bool validTri(bool, const Foam::triSurface&, Foam::label)
    in file surfaceCheck.C at line 103
    triangle 23384 vertices ((2909 3145 3164) 0) has the same vertices as triangle 24617 vertices ((2909 3164 3145) 0) coords:3((3.2542 -0.175676 4.71314) (3.2642 -0.175676 4.71314) (3.2642 -0.173564 4.71372))
--> FOAM Warning : 
    From function bool validTri(bool, const Foam::triSurface&, Foam::label)
    in file surfaceCheck.C at line 103
    triangle 23385 vertices ((2909 3164 2930) 0) has the same vertices as triangle 24616 vertices ((2909 2930 3164) 0) coords:3((3.2542 -0.175676 4.71314) (3.2642 -0.173564 4.71372) (3.2542 -0.173564 4.71372))
--> FOAM Warning : 
    From function bool validTri(bool, const Foam::triSurface&, Foam::label)
    in file surfaceCheck.C at line 103
    triangle 23386 vertices ((3108 3337 3360) 0) has the same vertices as triangle 24619 vertices ((3108 3360 3337) 0) coords:3((3.2642 -0.179872 4.71166) (3.2742 -0.179872 4.71166) (3.2742 -0.17778 4.71246))
--> FOAM Warning : 
    From function bool validTri(bool, const Foam::triSurface&, Foam::label)
    in file surfaceCheck.C at line 103
    triangle 23387 vertices ((3108 3360 3130) 0) has the same vertices as triangle 24618 vertices ((3108 3130 3360) 0) coords:3((3.2642 -0.179872 4.71166) (3.2742 -0.17778 4.71246) (3.2642 -0.17778 4.71246))
--> FOAM Warning : 
    From function bool validTri(bool, const Foam::triSurface&, Foam::label)
    in file surfaceCheck.C at line 103
    triangle 23388 vertices ((3130 3360 3378) 0) has the same vertices as triangle 24621 vertices ((3130 3378 3360) 0) coords:3((3.2642 -0.17778 4.71246) (3.2742 -0.17778 4.71246) (3.2742 -0.175676 4.71314))
--> FOAM Warning : 
    From function bool validTri(bool, const Foam::triSurface&, Foam::label)
    in file surfaceCheck.C at line 103
    triangle 23389 vertices ((3130 3378 3145) 0) has the same vertices as triangle 24620 vertices ((3130 3145 3378) 0) coords:3((3.2642 -0.17778 4.71246) (3.2742 -0.175676 4.71314) (3.2642 -0.175676 4.71314))
--> FOAM Warning : 
    From function bool validTri(bool, const Foam::triSurface&, Foam::label)
    in file surfaceCheck.C at line 103
    triangle 23390 vertices ((2887 3130 3145) 0) has the same vertices as triangle 24623 vertices ((2887 3145 3130) 0) coords:3((3.2542 -0.17778 4.71246) (3.2642 -0.17778 4.71246) (3.2642 -0.175676 4.71314))
--> FOAM Warning : 
    From function bool validTri(bool, const Foam::triSurface&, Foam::label)
    in file surfaceCheck.C at line 103
    triangle 23391 vertices ((2887 3145 2909) 0) has the same vertices as triangle 24622 vertices ((2887 2909 3145) 0) coords:3((3.2542 -0.17778 4.71246) (3.2642 -0.175676 4.71314) (3.2542 -0.175676 4.71314))
--> FOAM Warning : 
    From function bool validTri(bool, const Foam::triSurface&, Foam::label)
    in file surfaceCheck.C at line 103
    triangle 23392 vertices ((2864 3108 3130) 0) has the same vertices as triangle 24625 vertices ((2864 3130 3108) 0) coords:3((3.2542 -0.179872 4.71166) (3.2642 -0.179872 4.71166) (3.2642 -0.17778 4.71246))
--> FOAM Warning : 
    From function bool validTri(bool, const Foam::triSurface&, Foam::label)
    in file surfaceCheck.C at line 103
    triangle 23393 vertices ((2864 3130 2887) 0) has the same vertices as triangle 24624 vertices ((2864 2887 3130) 0) coords:3((3.2542 -0.179872 4.71166) (3.2642 -0.17778 4.71246) (3.2542 -0.17778 4.71246))
--> FOAM Warning : 
    From function bool validTri(bool, const Foam::triSurface&, Foam::label)
    in file surfaceCheck.C at line 103
    triangle 23394 vertices ((2971 3204 3231) 0) has the same vertices as triangle 24627 vertices ((2971 3231 3204) 0) coords:3((3.2642 -0.187804 4.70742) (3.2742 -0.187804 4.70742) (3.2742 -0.185904 4.70863))
--> FOAM Warning : 
    From function bool validTri(bool, const Foam::triSurface&, Foam::label)
    in file surfaceCheck.C at line 103
    triangle 23395 vertices ((2971 3231 3009) 0) has the same vertices as triangle 24626 vertices ((2971 3009 3231) 0) coords:3((3.2642 -0.187804 4.70742) (3.2742 -0.185904 4.70863) (3.2642 -0.185904 4.70863))
--> FOAM Warning : 
    From function bool validTri(bool, const Foam::triSurface&, Foam::label)
    in file surfaceCheck.C at line 103
    triangle 23396 vertices ((3009 3231 3273) 0) has the same vertices as triangle 24629 vertices ((3009 3273 3231) 0) coords:3((3.2642 -0.185904 4.70863) (3.2742 -0.185904 4.70863) (3.2742 -0.18396 4.70973))
--> FOAM Warning : 
    From function bool validTri(bool, const Foam::triSurface&, Foam::label)
    in file surfaceCheck.C at line 103
    triangle 23397 vertices ((3009 3273 3040) 0) has the same vertices as triangle 24628 vertices ((3009 3040 3273) 0) coords:3((3.2642 -0.185904 4.70863) (3.2742 -0.18396 4.70973) (3.2642 -0.18396 4.70973))
--> FOAM Warning : 
    From function bool validTri(bool, const Foam::triSurface&, Foam::label)
    in file surfaceCheck.C at line 103
    triangle 23398 vertices ((2753 3009 3040) 0) has the same vertices as triangle 24631 vertices ((2753 3040 3009) 0) coords:3((3.2542 -0.185904 4.70863) (3.2642 -0.185904 4.70863) (3.2642 -0.18396 4.70973))
--> FOAM Warning : 
    From function bool validTri(bool, const Foam::triSurface&, Foam::label)
    in file surfaceCheck.C at line 103
    triangle 23399 vertices ((2753 3040 2792) 0) has the same vertices as triangle 24630 vertices ((2753 2792 3040) 0) coords:3((3.2542 -0.185904 4.70863) (3.2642 -0.18396 4.70973) (3.2542 -0.18396 4.70973))
--> FOAM Warning : 
    From function bool validTri(bool, const Foam::triSurface&, Foam::label)
    in file surfaceCheck.C at line 103
    triangle 23400 vertices ((2715 2971 3009) 0) has the same vertices as triangle 24633 vertices ((2715 3009 2971) 0) coords:3((3.2542 -0.187804 4.70742) (3.2642 -0.187804 4.70742) (3.2642 -0.185904 4.70863))
--> FOAM Warning : 
    From function bool validTri(bool, const Foam::triSurface&, Foam::label)
    in file surfaceCheck.C at line 103
    triangle 23401 vertices ((2715 3009 2753) 0) has the same vertices as triangle 24632 vertices ((2715 2753 3009) 0) coords:3((3.2542 -0.187804 4.70742) (3.2642 -0.185904 4.70863) (3.2542 -0.185904 4.70863))
--> FOAM Warning : 
    From function bool validTri(bool, const Foam::triSurface&, Foam::label)
    in file surfaceCheck.C at line 103
    triangle 23402 vertices ((2873 3118 3161) 0) has the same vertices as triangle 24635 vertices ((2873 3161 3118) 0) coords:3((3.2642 -0.191432 4.70471) (3.2742 -0.191432 4.70471) (3.2742 -0.189648 4.70611))
--> FOAM Warning : 
    From function bool validTri(bool, const Foam::triSurface&, Foam::label)
    in file surfaceCheck.C at line 103
    triangle 23403 vertices ((2873 3161 2925) 0) has the same vertices as triangle 24634 vertices ((2873 2925 3161) 0) coords:3((3.2642 -0.191432 4.70471) (3.2742 -0.189648 4.70611) (3.2642 -0.189648 4.70611))
--> FOAM Warning : 
    From function bool validTri(bool, const Foam::triSurface&, Foam::label)
    in file surfaceCheck.C at line 103
    triangle 23404 vertices ((2925 3161 3204) 0) has the same vertices as triangle 24637 vertices ((2925 3204 3161) 0) coords:3((3.2642 -0.189648 4.70611) (3.2742 -0.189648 4.70611) (3.2742 -0.187804 4.70742))
--> FOAM Warning : 
    From function bool validTri(bool, const Foam::triSurface&, Foam::label)
    in file surfaceCheck.C at line 103
    triangle 23405 vertices ((2925 3204 2971) 0) has the same vertices as triangle 24636 vertices ((2925 2971 3204) 0) coords:3((3.2642 -0.189648 4.70611) (3.2742 -0.187804 4.70742) (3.2642 -0.187804 4.70742))
--> FOAM Warning : 
    From function bool validTri(bool, const Foam::triSurface&, Foam::label)
    in file surfaceCheck.C at line 103
    triangle 23406 vertices ((2677 2925 2971) 0) has the same vertices as triangle 24639 vertices ((2677 2971 2925) 0) coords:3((3.2542 -0.189648 4.70611) (3.2642 -0.189648 4.70611) (3.2642 -0.187804 4.70742))
--> FOAM Warning : 
    From function bool validTri(bool, const Foam::triSurface&, Foam::label)
    in file surfaceCheck.C at line 103
    triangle 23407 vertices ((2677 2971 2715) 0) has the same vertices as triangle 24638 vertices ((2677 2715 2971) 0) coords:3((3.2542 -0.189648 4.70611) (3.2642 -0.187804 4.70742) (3.2542 -0.187804 4.70742))
--> FOAM Warning : 
    From function bool validTri(bool, const Foam::triSurface&, Foam::label)
    in file surfaceCheck.C at line 103
    triangle 23408 vertices ((2639 2873 2925) 0) has the same vertices as triangle 24641 vertices ((2639 2925 2873) 0) coords:3((3.2542 -0.191432 4.70471) (3.2642 -0.191432 4.70471) (3.2642 -0.189648 4.70611))
--> FOAM Warning : 
    From function bool validTri(bool, const Foam::triSurface&, Foam::label)
    in file surfaceCheck.C at line 103
    triangle 23409 vertices ((2639 2925 2677) 0) has the same vertices as triangle 24640 vertices ((2639 2677 2925) 0) coords:3((3.2542 -0.191432 4.70471) (3.2642 -0.189648 4.70611) (3.2542 -0.189648 4.70611))
--> FOAM Warning : 
    From function bool validTri(bool, const Foam::triSurface&, Foam::label)
    in file surfaceCheck.C at line 103
    triangle 23410 vertices ((2657 2903 2966) 0) has the same vertices as triangle 24643 vertices ((2657 2966 2903) 0) coords:3((3.2642 -0.197788 4.69821) (3.2742 -0.197788 4.69821) (3.2742 -0.196328 4.69995))
--> FOAM Warning : 
    From function bool validTri(bool, const Foam::triSurface&, Foam::label)
    in file surfaceCheck.C at line 103
    triangle 23411 vertices ((2657 2966 2706) 0) has the same vertices as triangle 24642 vertices ((2657 2706 2966) 0) coords:3((3.2642 -0.197788 4.69821) (3.2742 -0.196328 4.69995) (3.2642 -0.196328 4.69995))
--> FOAM Warning : 
[...]
--> FOAM Warning : 
    From function bool validTri(bool, const Foam::triSurface&, Foam::label)
    in file surfaceCheck.C at line 103
    triangle 482613 vertices ((151011 151235 150839) 0) has the same vertices as triangle 515751 vertices ((151011 151235 150839) 0) coords:3((5.731 3.44248 4.515) (5.7334 3.4424 4.515) (5.731 3.43928 4.515))
--> FOAM Warning : 
    From function bool validTri(bool, const Foam::triSurface&, Foam::label)
    in file surfaceCheck.C at line 103
    triangle 482614 vertices ((151201 150839 151235) 0) has the same vertices as triangle 515752 vertices ((151201 150839 151235) 0) coords:3((5.7348 3.43928 4.515) (5.731 3.43928 4.515) (5.7334 3.4424 4.515))
--> FOAM Warning : 
    From function bool validTri(bool, const Foam::triSurface&, Foam::label)
    in file surfaceCheck.C at line 103
    triangle 482615 vertices ((151493 151201 151235) 0) has the same vertices as triangle 515753 vertices ((151493 151201 151235) 0) coords:3((5.7364 3.442 4.515) (5.7348 3.43928 4.515) (5.7334 3.4424 4.515))
--> FOAM Warning : 
    From function bool validTri(bool, const Foam::triSurface&, Foam::label)
    in file surfaceCheck.C at line 103
    triangle 482616 vertices ((151643 151784 151522) 0) has the same vertices as triangle 515754 vertices ((151643 151784 151522) 0) coords:3((5.7391 3.44136 4.515) (5.7419 3.44044 4.515) (5.7386 3.43928 4.515))
--> FOAM Warning : 
    From function bool validTri(bool, const Foam::triSurface&, Foam::label)
    in file surfaceCheck.C at line 103
    triangle 482618 vertices ((151522 151493 151643) 0) has the same vertices as triangle 515756 vertices ((151522 151493 151643) 0) coords:3((5.7386 3.43928 4.515) (5.7364 3.442 4.515) (5.7391 3.44136 4.515))
--> FOAM Warning : 
    From function bool validTri(bool, const Foam::triSurface&, Foam::label)
    in file surfaceCheck.C at line 103
    triangle 482621 vertices ((152083 151778 152139) 0) has the same vertices as triangle 515759 vertices ((152083 151778 152139) 0) coords:3((5.7604 3.41824 4.515) (5.7539 3.42016 4.515) (5.7597 3.42108 4.515))
--> FOAM Warning : 
    From function bool validTri(bool, const Foam::triSurface&, Foam::label)
    in file surfaceCheck.C at line 103
    triangle 482622 vertices ((151730 151778 152083) 0) has the same vertices as triangle 515760 vertices ((151730 151778 152083) 0) coords:3((5.7577 3.41248 4.515) (5.7539 3.42016 4.515) (5.7604 3.41824 4.515))
--> FOAM Warning : 
    From function bool validTri(bool, const Foam::triSurface&, Foam::label)
    in file surfaceCheck.C at line 103
    triangle 482623 vertices ((152180 152139 151778) 0) has the same vertices as triangle 515761 vertices ((152180 152139 151778) 0) coords:3((5.7587 3.42388 4.515) (5.7597 3.42108 4.515) (5.7539 3.42016 4.515))
--> FOAM Warning : 
    From function bool validTri(bool, const Foam::triSurface&, Foam::label)
    in file surfaceCheck.C at line 103
    triangle 482624 vertices ((152083 152001 151730) 0) has the same vertices as triangle 515762 vertices ((152083 152001 151730) 0) coords:3((5.7604 3.41824 4.515) (5.7608 3.41544 4.515) (5.7577 3.41248 4.515))
--> FOAM Warning : 
    From function bool validTri(bool, const Foam::triSurface&, Foam::label)
    in file surfaceCheck.C at line 103
    triangle 482625 vertices ((151921 151730 152001) 0) has the same vertices as triangle 515763 vertices ((151921 151730 152001) 0) coords:3((5.761 3.41248 4.515) (5.7577 3.41248 4.515) (5.7608 3.41544 4.515))
--> FOAM Warning : 
    From function bool validTri(bool, const Foam::triSurface&, Foam::label)
    in file surfaceCheck.C at line 103
    triangle 482628 vertices ((151578 152178 152024) 0) has the same vertices as triangle 515766 vertices ((151578 152178 152024) 0) coords:3((5.7462 3.4278 4.515) (5.754 3.43168 4.515) (5.7539 3.4278 4.515))
--> FOAM Warning : 
    From function bool validTri(bool, const Foam::triSurface&, Foam::label)
    in file surfaceCheck.C at line 103
    triangle 482630 vertices ((152201 152024 152198) 0) has the same vertices as triangle 515768 vertices ((152201 152024 152198) 0) coords:3((5.7574 3.42664 4.515) (5.7539 3.4278 4.515) (5.7558 3.42924 4.515))
--> FOAM Warning : 
    From function bool validTri(bool, const Foam::triSurface&, Foam::label)
    in file surfaceCheck.C at line 103
    triangle 482632 vertices ((152201 151778 152024) 0) has the same vertices as triangle 515770 vertices ((152201 151778 152024) 0) coords:3((5.7574 3.42664 4.515) (5.7539 3.42016 4.515) (5.7539 3.4278 4.515))
Surface has 2181 illegal triangles.
Dumping conflicting face labels to "illegalFaces"
Paste this into the input for surfaceSubset

Triangle quality (equilateral=1, collapsed=0):
    0 .. 0.05  : 0.0276194
    0.05 .. 0.1  : 0.018916
    0.1 .. 0.15  : 0.0372151
    0.15 .. 0.2  : 0.0225851
    0.2 .. 0.25  : 0.170399
    0.25 .. 0.3  : 0.344217
    0.3 .. 0.35  : 0.0349753
    0.35 .. 0.4  : 0.0317346
    0.4 .. 0.45  : 0.0266701
    0.45 .. 0.5  : 0.0435525
    0.5 .. 0.55  : 0.0320066
    0.55 .. 0.6  : 0.0278558
    0.6 .. 0.65  : 0.0279856
    0.65 .. 0.7  : 0.0280851
    0.7 .. 0.75  : 0.030133
    0.75 .. 0.8  : 0.0437551
    0.8 .. 0.85  : 0.0152487
    0.85 .. 0.9  : 0.0134124
    0.9 .. 0.95  : 0.0115103
    0.95 .. 1  : 0.0121236

    min 5.17932e-11 for triangle 500423
    max 0.999987 for triangle 404543

Edges:
    min 7.5655e-05 for edge 819221 points (3.24452 -0.627068 4.8959)(3.24452 -0.626995 4.89592)
    max 1.47 for edge 721259 points (4.6842 3.47248 4.72)(6.1542 3.47248 4.72)

Checking for points less than 1e-6 of bounding box ((4.4387 6.91658 1.08476) metre) apart.
    close unconnected points 274193 (3.3992 -0.920833 4.6857) and 44566 (3.3992 -0.920829 4.6857) distance:3.99351e-06
    close unconnected points 274444 (3.5592 -0.920833 4.6857) and 45299 (3.5592 -0.920829 4.6857) distance:3.99351e-06
    close unconnected points 52910 (4.2042 -0.920833 4.6857) and 49126 (4.2042 -0.920829 4.6857) distance:3.99351e-06
    close unconnected points 53250 (4.3642 -0.920833 4.6857) and 49859 (4.3642 -0.920829 4.6857) distance:3.99351e-06
    close unconnected points 51734 (6.6642 -0.920833 4.6857) and 48339 (6.6642 -0.920829 4.6857) distance:3.99351e-06
    close unconnected points 45906 (7.3196 -0.897717 4.68567) and 276546 (7.3196 -0.897713 4.68567) distance:3.99351e-06
    close unconnected points 276549 (7.3196 -0.899415 4.68567) and 45910 (7.3196 -0.899412 4.68567) distance:3.03984e-06
    close unconnected points 276548 (7.3196 -0.900266 4.68567) and 45911 (7.3196 -0.900259 4.68567) distance:6.97374e-06
    close unconnected points 276976 (7.4792 -0.920833 4.6857) and 46819 (7.4792 -0.920829 4.6857) distance:3.99351e-06
Found 9 nearby points.

Surface is not closed since not all edges connected to two faces:
    connected to one face : 16
    connected to >2 faces : 4223
Conflicting face labels:16908
Dumping conflicting face labels to "problemFaces"
Paste this into the input for surfaceSubset

Number of unconnected parts : 239
Splitting surface into parts ...

Writing zoning to "zone_temple_ready.vtk"...

writing part 0 size 6766 to "temple_ready_0.obj"
writing part 1 size 3500 to "temple_ready_1.obj"
writing part 2 size 3494 to "temple_ready_2.obj"
writing part 3 size 13528 to "temple_ready_3.obj"
writing part 4 size 852 to "temple_ready_4.obj"
writing part 5 size 132 to "temple_ready_5.obj"
writing part 6 size 132 to "temple_ready_6.obj"
writing part 7 size 852 to "temple_ready_7.obj"
writing part 8 size 2004 to "temple_ready_8.obj"
writing part 9 size 6172 to "temple_ready_9.obj"
writing part 10 size 2004 to "temple_ready_10.obj"
writing part 11 size 36 to "temple_ready_11.obj"
writing part 12 size 1172 to "temple_ready_12.obj"
writing part 13 size 1172 to "temple_ready_13.obj"
writing part 14 size 1172 to "temple_ready_14.obj"
writing part 15 size 1172 to "temple_ready_15.obj"
writing part 16 size 1172 to "temple_ready_16.obj"
writing part 17 size 1172 to "temple_ready_17.obj"
writing part 18 size 1172 to "temple_ready_18.obj"
writing part 19 size 1172 to "temple_ready_19.obj"
writing part 20 size 1172 to "temple_ready_20.obj"
writing part 21 size 1172 to "temple_ready_21.obj"
writing part 22 size 1172 to "temple_ready_22.obj"
writing part 23 size 1172 to "temple_ready_23.obj"
writing part 24 size 21594 to "temple_ready_24.obj"
writing part 25 size 36 to "temple_ready_25.obj"
writing part 26 size 36 to "temple_ready_26.obj"
writing part 27 size 160 to "temple_ready_27.obj"
writing part 28 size 82 to "temple_ready_28.obj"
writing part 29 size 36 to "temple_ready_29.obj"
writing part 30 size 36 to "temple_ready_30.obj"
writing part 31 size 140 to "temple_ready_31.obj"
writing part 32 size 108 to "temple_ready_32.obj"
writing part 33 size 140 to "temple_ready_33.obj"
writing part 34 size 2160 to "temple_ready_34.obj"
writing part 35 size 2160 to "temple_ready_35.obj"
writing part 36 size 1218 to "temple_ready_36.obj"
writing part 37 size 1218 to "temple_ready_37.obj"
writing part 38 size 1218 to "temple_ready_38.obj"
writing part 39 size 1162 to "temple_ready_39.obj"
writing part 40 size 1218 to "temple_ready_40.obj"
writing part 41 size 1218 to "temple_ready_41.obj"
writing part 42 size 604 to "temple_ready_42.obj"
writing part 43 size 612 to "temple_ready_43.obj"
writing part 44 size 572 to "temple_ready_44.obj"
writing part 45 size 4136 to "temple_ready_45.obj"
writing part 46 size 1104 to "temple_ready_46.obj"
writing part 47 size 1092 to "temple_ready_47.obj"
writing part 48 size 2166 to "temple_ready_48.obj"
writing part 49 size 252 to "temple_ready_49.obj"
writing part 50 size 2166 to "temple_ready_50.obj"
writing part 51 size 252 to "temple_ready_51.obj"
writing part 52 size 12 to "temple_ready_52.obj"
writing part 53 size 12 to "temple_ready_53.obj"
writing part 54 size 132 to "temple_ready_54.obj"
writing part 55 size 132 to "temple_ready_55.obj"
writing part 56 size 1364 to "temple_ready_56.obj"
writing part 57 size 1012 to "temple_ready_57.obj"
writing part 58 size 60 to "temple_ready_58.obj"
writing part 59 size 60 to "temple_ready_59.obj"
writing part 60 size 60 to "temple_ready_60.obj"
writing part 61 size 92 to "temple_ready_61.obj"
writing part 62 size 92 to "temple_ready_62.obj"
writing part 63 size 132 to "temple_ready_63.obj"
writing part 64 size 132 to "temple_ready_64.obj"
writing part 65 size 1364 to "temple_ready_65.obj"
writing part 66 size 1012 to "temple_ready_66.obj"
writing part 67 size 60 to "temple_ready_67.obj"
writing part 68 size 60 to "temple_ready_68.obj"
writing part 69 size 60 to "temple_ready_69.obj"
writing part 70 size 92 to "temple_ready_70.obj"
writing part 71 size 92 to "temple_ready_71.obj"
writing part 72 size 132 to "temple_ready_72.obj"
writing part 73 size 132 to "temple_ready_73.obj"
writing part 74 size 1364 to "temple_ready_74.obj"
writing part 75 size 1012 to "temple_ready_75.obj"
writing part 76 size 60 to "temple_ready_76.obj"
writing part 77 size 60 to "temple_ready_77.obj"
writing part 78 size 60 to "temple_ready_78.obj"
writing part 79 size 92 to "temple_ready_79.obj"
writing part 80 size 92 to "temple_ready_80.obj"
writing part 81 size 132 to "temple_ready_81.obj"
writing part 82 size 132 to "temple_ready_82.obj"
writing part 83 size 1364 to "temple_ready_83.obj"
writing part 84 size 1012 to "temple_ready_84.obj"
writing part 85 size 60 to "temple_ready_85.obj"
writing part 86 size 60 to "temple_ready_86.obj"
writing part 87 size 60 to "temple_ready_87.obj"
writing part 88 size 92 to "temple_ready_88.obj"
writing part 89 size 92 to "temple_ready_89.obj"
writing part 90 size 3044 to "temple_ready_90.obj"
writing part 91 size 3044 to "temple_ready_91.obj"
writing part 92 size 27700 to "temple_ready_92.obj"
writing part 93 size 1222 to "temple_ready_93.obj"
writing part 94 size 20272 to "temple_ready_94.obj"
writing part 95 size 19644 to "temple_ready_95.obj"
writing part 96 size 826 to "temple_ready_96.obj"
writing part 97 size 116 to "temple_ready_97.obj"
writing part 98 size 124 to "temple_ready_98.obj"
writing part 99 size 144 to "temple_ready_99.obj"
writing part 100 size 60 to "temple_ready_100.obj"
writing part 101 size 160 to "temple_ready_101.obj"
writing part 102 size 236 to "temple_ready_102.obj"
writing part 103 size 98 to "temple_ready_103.obj"
writing part 104 size 60 to "temple_ready_104.obj"
writing part 105 size 160 to "temple_ready_105.obj"
writing part 106 size 164 to "temple_ready_106.obj"
writing part 107 size 140 to "temple_ready_107.obj"
writing part 108 size 140 to "temple_ready_108.obj"
writing part 109 size 140 to "temple_ready_109.obj"
writing part 110 size 140 to "temple_ready_110.obj"
writing part 111 size 140 to "temple_ready_111.obj"
writing part 112 size 140 to "temple_ready_112.obj"
writing part 113 size 140 to "temple_ready_113.obj"
writing part 114 size 140 to "temple_ready_114.obj"
writing part 115 size 140 to "temple_ready_115.obj"
writing part 116 size 140 to "temple_ready_116.obj"
writing part 117 size 142 to "temple_ready_117.obj"
writing part 118 size 108 to "temple_ready_118.obj"
writing part 119 size 172 to "temple_ready_119.obj"
writing part 120 size 174 to "temple_ready_120.obj"
writing part 121 size 17388 to "temple_ready_121.obj"
writing part 122 size 15682 to "temple_ready_122.obj"
writing part 123 size 4616 to "temple_ready_123.obj"
writing part 124 size 5006 to "temple_ready_124.obj"
writing part 125 size 4616 to "temple_ready_125.obj"
writing part 126 size 4952 to "temple_ready_126.obj"
writing part 127 size 4616 to "temple_ready_127.obj"
writing part 128 size 5004 to "temple_ready_128.obj"
writing part 129 size 4616 to "temple_ready_129.obj"
writing part 130 size 4952 to "temple_ready_130.obj"
writing part 131 size 2522 to "temple_ready_131.obj"
writing part 132 size 2510 to "temple_ready_132.obj"
writing part 133 size 2528 to "temple_ready_133.obj"
writing part 134 size 2512 to "temple_ready_134.obj"
writing part 135 size 5624 to "temple_ready_135.obj"
writing part 136 size 5624 to "temple_ready_136.obj"
writing part 137 size 5624 to "temple_ready_137.obj"
writing part 138 size 5624 to "temple_ready_138.obj"
writing part 139 size 8 to "temple_ready_139.obj"
writing part 140 size 17388 to "temple_ready_140.obj"
writing part 141 size 15710 to "temple_ready_141.obj"
writing part 142 size 4616 to "temple_ready_142.obj"
writing part 143 size 5006 to "temple_ready_143.obj"
writing part 144 size 4616 to "temple_ready_144.obj"
writing part 145 size 4616 to "temple_ready_145.obj"
writing part 146 size 5004 to "temple_ready_146.obj"
writing part 147 size 4616 to "temple_ready_147.obj"
writing part 148 size 2522 to "temple_ready_148.obj"
writing part 149 size 2510 to "temple_ready_149.obj"
writing part 150 size 2528 to "temple_ready_150.obj"
writing part 151 size 2512 to "temple_ready_151.obj"
writing part 152 size 5624 to "temple_ready_152.obj"
writing part 153 size 5624 to "temple_ready_153.obj"
writing part 154 size 5624 to "temple_ready_154.obj"
writing part 155 size 5624 to "temple_ready_155.obj"
writing part 156 size 8 to "temple_ready_156.obj"
writing part 157 size 5988 to "temple_ready_157.obj"
writing part 158 size 5988 to "temple_ready_158.obj"
writing part 159 size 140 to "temple_ready_159.obj"
writing part 160 size 140 to "temple_ready_160.obj"
writing part 161 size 140 to "temple_ready_161.obj"
writing part 162 size 140 to "temple_ready_162.obj"
writing part 163 size 140 to "temple_ready_163.obj"
writing part 164 size 140 to "temple_ready_164.obj"
writing part 165 size 140 to "temple_ready_165.obj"
writing part 166 size 140 to "temple_ready_166.obj"
writing part 167 size 140 to "temple_ready_167.obj"
writing part 168 size 140 to "temple_ready_168.obj"
writing part 169 size 140 to "temple_ready_169.obj"
writing part 170 size 140 to "temple_ready_170.obj"
writing part 171 size 19356 to "temple_ready_171.obj"
writing part 172 size 148 to "temple_ready_172.obj"
writing part 173 size 150 to "temple_ready_173.obj"
writing part 174 size 140 to "temple_ready_174.obj"
writing part 175 size 160 to "temple_ready_175.obj"
writing part 176 size 68 to "temple_ready_176.obj"
writing part 177 size 60 to "temple_ready_177.obj"
writing part 178 size 68 to "temple_ready_178.obj"
writing part 179 size 68 to "temple_ready_179.obj"
writing part 180 size 118 to "temple_ready_180.obj"
writing part 181 size 48 to "temple_ready_181.obj"
writing part 182 size 3450 to "temple_ready_182.obj"
writing part 183 size 160 to "temple_ready_183.obj"
writing part 184 size 100 to "temple_ready_184.obj"
writing part 185 size 36 to "temple_ready_185.obj"
writing part 186 size 68 to "temple_ready_186.obj"
writing part 187 size 192 to "temple_ready_187.obj"
writing part 188 size 116 to "temple_ready_188.obj"
writing part 189 size 372 to "temple_ready_189.obj"
writing part 190 size 318 to "temple_ready_190.obj"
writing part 191 size 356 to "temple_ready_191.obj"
writing part 192 size 426 to "temple_ready_192.obj"
writing part 193 size 800 to "temple_ready_193.obj"
writing part 194 size 468 to "temple_ready_194.obj"
writing part 195 size 790 to "temple_ready_195.obj"
writing part 196 size 298 to "temple_ready_196.obj"
writing part 197 size 25106 to "temple_ready_197.obj"
writing part 198 size 4836 to "temple_ready_198.obj"
writing part 199 size 4836 to "temple_ready_199.obj"
writing part 200 size 4836 to "temple_ready_200.obj"
writing part 201 size 4836 to "temple_ready_201.obj"
writing part 202 size 5860 to "temple_ready_202.obj"
writing part 203 size 5860 to "temple_ready_203.obj"
writing part 204 size 452 to "temple_ready_204.obj"
writing part 205 size 294 to "temple_ready_205.obj"
writing part 206 size 7898 to "temple_ready_206.obj"
writing part 207 size 7898 to "temple_ready_207.obj"
writing part 208 size 68 to "temple_ready_208.obj"
writing part 209 size 294 to "temple_ready_209.obj"
writing part 210 size 11736 to "temple_ready_210.obj"
writing part 211 size 12110 to "temple_ready_211.obj"
writing part 212 size 124 to "temple_ready_212.obj"
writing part 213 size 76 to "temple_ready_213.obj"
writing part 214 size 148 to "temple_ready_214.obj"
writing part 215 size 76 to "temple_ready_215.obj"
writing part 216 size 76 to "temple_ready_216.obj"
writing part 217 size 100 to "temple_ready_217.obj"
writing part 218 size 100 to "temple_ready_218.obj"
writing part 219 size 100 to "temple_ready_219.obj"
writing part 220 size 124 to "temple_ready_220.obj"
writing part 221 size 100 to "temple_ready_221.obj"
writing part 222 size 44 to "temple_ready_222.obj"
writing part 223 size 44 to "temple_ready_223.obj"
writing part 224 size 44 to "temple_ready_224.obj"
writing part 225 size 44 to "temple_ready_225.obj"
writing part 226 size 44 to "temple_ready_226.obj"
writing part 227 size 44 to "temple_ready_227.obj"
writing part 228 size 1664 to "temple_ready_228.obj"
writing part 229 size 1664 to "temple_ready_229.obj"
writing part 230 size 1664 to "temple_ready_230.obj"
writing part 231 size 1664 to "temple_ready_231.obj"
writing part 232 size 4068 to "temple_ready_232.obj"
writing part 233 size 4068 to "temple_ready_233.obj"
writing part 234 size 4068 to "temple_ready_234.obj"
writing part 235 size 4068 to "temple_ready_235.obj"
writing part 236 size 4068 to "temple_ready_236.obj"
writing part 237 size 4068 to "temple_ready_237.obj"
writing part 238 size 1564 to "temple_ready_238.obj"

Number of zones (connected area with consistent normal) : 5207
More than one normal orientation.


End

