/*---------------------------------------------------------------------------*\
  =========                 |
  \\      /  F ield         | OpenFOAM: The Open Source CFD Toolbox
   \\    /   O peration     | Website:  https://openfoam.org
    \\  /    A nd           | Version:  8
     \\/     M anipulation  |
\*---------------------------------------------------------------------------*/
/*   Windows 32 and 64 bit porting by blueCAPE: http://www.bluecape.com.pt   *\
|  Based on Windows porting (2.0.x v4) by Symscape: http://www.symscape.com   |
\*---------------------------------------------------------------------------*/
Build  : 8-53cd1468e263
Exec   : C:/PROGRA~1/BLUECF~1/OpenFOAM-8/platforms/mingw_w64GccDPInt32Opt/bin/buoyantPimpleFoam.exe
Date   : Nov 18 2025
Time   : 01:11:43
Host   : "HARRYSDELL"
PID    : 44080
I/O    : uncollated
Case   : C:/PROGRA~1/BLUECF~1/ofuser-of8/run/hotRoom02
nProcs : 1
SigFpe : Enabling floating point exception trapping (FOAM_SIGFPE).
fileModificationChecking : Monitoring run-time modified files using timeStampMaster (fileModificationSkew 10)
allowSystemOperations : Allowing user-supplied system call operations

// * * * * * * * * * * * * * * * * * * * * * * * * * * * * * * * * * * * * * //
Create time

Create mesh for time = 0


PIMPLE: Convergence criteria found
        U: tolerance 1e-06
        h: tolerance 1e-07
        p_rgh: tolerance 1e-05


PIMPLE: No corrector convergence criteria found
        Calculations will do 3 corrections


PIMPLE: Operating solver in transient mode with 3 outer correctors


Reading thermophysical properties

Selecting thermodynamics package 
{
    type            heRhoThermo;
    mixture         pureMixture;
    transport       const;
    thermo          hConst;
    equationOfState perfectGas;
    specie          specie;
    energy          sensibleEnthalpy;
}

Reading field U

Reading/calculating face flux field phi

Creating turbulence model

Selecting turbulence model type RAS
Selecting RAS turbulence model kEpsilon
RAS
{
    model           kEpsilon;
    turbulence      on;
    printCoeffs     on;
    Cmu             0.09;
    C1              1.44;
    C2              1.92;
    C3              0;
    sigmak          1;
    sigmaEps        1.3;
}

Creating thermophysical transport model

Selecting thermophysical transport type RAS
Selecting default RAS thermophysical transport model eddyDiffusivity

Reading g

Reading hRef
Calculating field g.h


Reading pRef
Reading field p_rgh

Creating field dpdt

Creating field kinetic energy K

No MRF models present

Radiation model not active: radiationProperties not found
Selecting radiationModel none
No finite volume options present
Courant Number mean: 0 max: 0

Starting time loop

Courant Number mean: 0 max: 0
deltaT = 0.024
Time = 0.024

PIMPLE: Iteration 1
diagonal:  Solving for rho, Initial residual = 0, Final residual = 0, No Iterations 0
DILUPBiCGStab:  Solving for Ux, Initial residual = 1, Final residual = 3.321e-08, No Iterations 1
DILUPBiCGStab:  Solving for Uy, Initial residual = 1, Final residual = 1.985e-08, No Iterations 1
DILUPBiCGStab:  Solving for Uz, Initial residual = 1, Final residual = 2.664e-08, No Iterations 1
DILUPBiCGStab:  Solving for h, Initial residual = 1, Final residual = 1.625e-08, No Iterations 1
DICPCG:  Solving for p_rgh, Initial residual = 0.595, Final residual = 0.002455, No Iterations 11
diagonal:  Solving for rho, Initial residual = 0, Final residual = 0, No Iterations 0
time step continuity errors : sum local = 5.081e-05, global = 3.528e-07, cumulative = 3.528e-07
DICPCG:  Solving for p_rgh, Initial residual = 0.5968, Final residual = 5.684e-09, No Iterations 59
diagonal:  Solving for rho, Initial residual = 0, Final residual = 0, No Iterations 0
time step continuity errors : sum local = 1.055e-05, global = -2.171e-07, cumulative = 1.357e-07
PIMPLE: Iteration 2
DILUPBiCGStab:  Solving for Ux, Initial residual = 0.2058, Final residual = 3.583e-07, No Iterations 1
DILUPBiCGStab:  Solving for Uy, Initial residual = 0.6878, Final residual = 9.8e-07, No Iterations 1
DILUPBiCGStab:  Solving for Uz, Initial residual = 0.2014, Final residual = 4.186e-07, No Iterations 1
DILUPBiCGStab:  Solving for h, Initial residual = 0.9189, Final residual = 1.474e-06, No Iterations 1
DICPCG:  Solving for p_rgh, Initial residual = 0.7693, Final residual = 0.007501, No Iterations 10
diagonal:  Solving for rho, Initial residual = 0, Final residual = 0, No Iterations 0
time step continuity errors : sum local = 0.000126, global = 3.996e-07, cumulative = 5.353e-07
DICPCG:  Solving for p_rgh, Initial residual = 0.7895, Final residual = 6.641e-09, No Iterations 59
diagonal:  Solving for rho, Initial residual = 0, Final residual = 0, No Iterations 0
time step continuity errors : sum local = 1.116e-05, global = -2.313e-07, cumulative = 3.04e-07
PIMPLE: Iteration 3
DILUPBiCGStab:  Solving for Ux, Initial residual = 0.0608, Final residual = 8.379e-08, No Iterations 1
DILUPBiCGStab:  Solving for Uy, Initial residual = 0.1039, Final residual = 1.975e-07, No Iterations 1
DILUPBiCGStab:  Solving for Uz, Initial residual = 0.1069, Final residual = 2.571e-07, No Iterations 1
DILUPBiCGStab:  Solving for h, Initial residual = 0.9374, Final residual = 4.702e-12, No Iterations 1
DICPCG:  Solving for p_rgh, Initial residual = 0.8075, Final residual = 0.00754, No Iterations 10
diagonal:  Solving for rho, Initial residual = 0, Final residual = 0, No Iterations 0
time step continuity errors : sum local = 9.203e-05, global = 2.798e-07, cumulative = 5.838e-07
DICPCG:  Solving for p_rgh, Initial residual = 0.8201, Final residual = 6.779e-09, No Iterations 59
diagonal:  Solving for rho, Initial residual = 0, Final residual = 0, No Iterations 0
time step continuity errors : sum local = 8.126e-06, global = -1.665e-07, cumulative = 4.173e-07
DILUPBiCGStab:  Solving for epsilon, Initial residual = 1, Final residual = 8.079e-07, No Iterations 1
DILUPBiCGStab:  Solving for k, Initial residual = 1, Final residual = 8.418e-07, No Iterations 1
ExecutionTime = 0.318 s  ClockTime = 1 s

Courant Number mean: 0.003088 max: 0.02098
deltaT = 0.0288
Time = 0.0528

PIMPLE: Iteration 1
diagonal:  Solving for rho, Initial residual = 0, Final residual = 0, No Iterations 0
DILUPBiCGStab:  Solving for Ux, Initial residual = 0.2313, Final residual = 2.5e-07, No Iterations 1
DILUPBiCGStab:  Solving for Uy, Initial residual = 0.6593, Final residual = 9.837e-07, No Iterations 1
DILUPBiCGStab:  Solving for Uz, Initial residual = 0.265, Final residual = 5.896e-07, No Iterations 1
DILUPBiCGStab:  Solving for h, Initial residual = 0.3871, Final residual = 5.661e-07, No Iterations 1
DICPCG:  Solving for p_rgh, Initial residual = 0.8534, Final residual = 0.007712, No Iterations 10
diagonal:  Solving for rho, Initial residual = 0, Final residual = 0, No Iterations 0
time step continuity errors : sum local = 0.0001091, global = 4.894e-07, cumulative = 9.067e-07
DICPCG:  Solving for p_rgh, Initial residual = 0.7758, Final residual = 8.838e-09, No Iterations 59
diagonal:  Solving for rho, Initial residual = 0, Final residual = 0, No Iterations 0
time step continuity errors : sum local = 6.631e-06, global = -1.317e-07, cumulative = 7.75e-07
PIMPLE: Iteration 2
DILUPBiCGStab:  Solving for Ux, Initial residual = 0.07638, Final residual = 1.39e-07, No Iterations 1
DILUPBiCGStab:  Solving for Uy, Initial residual = 0.0737, Final residual = 1.535e-07, No Iterations 1
DILUPBiCGStab:  Solving for Uz, Initial residual = 0.08309, Final residual = 2.333e-07, No Iterations 1
DILUPBiCGStab:  Solving for h, Initial residual = 0.09542, Final residual = 1.77e-07, No Iterations 1
DICPCG:  Solving for p_rgh, Initial residual = 0.7894, Final residual = 0.006888, No Iterations 10
diagonal:  Solving for rho, Initial residual = 0, Final residual = 0, No Iterations 0
time step continuity errors : sum local = 7.979e-05, global = 2.932e-07, cumulative = 1.068e-06
DICPCG:  Solving for p_rgh, Initial residual = 0.5796, Final residual = 5.98e-09, No Iterations 59
diagonal:  Solving for rho, Initial residual = 0, Final residual = 0, No Iterations 0
time step continuity errors : sum local = 4.656e-06, global = -9.053e-08, cumulative = 9.776e-07
PIMPLE: Iteration 3
DILUPBiCGStab:  Solving for Ux, Initial residual = 0.0735, Final residual = 1.519e-07, No Iterations 1
DILUPBiCGStab:  Solving for Uy, Initial residual = 0.5313, Final residual = 6.218e-07, No Iterations 1
DILUPBiCGStab:  Solving for Uz, Initial residual = 0.02347, Final residual = 5.961e-08, No Iterations 1
DILUPBiCGStab:  Solving for h, Initial residual = 0.05438, Final residual = 6.982e-08, No Iterations 1
DICPCG:  Solving for p_rgh, Initial residual = 0.5539, Final residual = 0.004437, No Iterations 10
diagonal:  Solving for rho, Initial residual = 0, Final residual = 0, No Iterations 0
time step continuity errors : sum local = 4.828e-05, global = 1.363e-07, cumulative = 1.114e-06
DICPCG:  Solving for p_rgh, Initial residual = 0.385, Final residual = 7.107e-09, No Iterations 58
diagonal:  Solving for rho, Initial residual = 0, Final residual = 0, No Iterations 0
time step continuity errors : sum local = 2.607e-06, global = -4.843e-08, cumulative = 1.065e-06
DILUPBiCGStab:  Solving for epsilon, Initial residual = 0.8355, Final residual = 5.624e-07, No Iterations 1
DILUPBiCGStab:  Solving for k, Initial residual = 0.7898, Final residual = 5.636e-07, No Iterations 1
ExecutionTime = 0.344 s  ClockTime = 1 s

Courant Number mean: 0.002697 max: 0.02279
deltaT = 0.03456
Time = 0.0874

PIMPLE: Iteration 1
diagonal:  Solving for rho, Initial residual = 0, Final residual = 0, No Iterations 0
DILUPBiCGStab:  Solving for Ux, Initial residual = 0.3032, Final residual = 5.998e-07, No Iterations 1
DILUPBiCGStab:  Solving for Uy, Initial residual = 0.8253, Final residual = 8.827e-07, No Iterations 1
DILUPBiCGStab:  Solving for Uz, Initial residual = 0.1095, Final residual = 2.986e-07, No Iterations 1
DILUPBiCGStab:  Solving for h, Initial residual = 0.03641, Final residual = 5.987e-08, No Iterations 1
DICPCG:  Solving for p_rgh, Initial residual = 0.3869, Final residual = 0.002764, No Iterations 8
diagonal:  Solving for rho, Initial residual = 0, Final residual = 0, No Iterations 0
time step continuity errors : sum local = 3.412e-05, global = 8.22e-08, cumulative = 1.148e-06
DICPCG:  Solving for p_rgh, Initial residual = 0.2767, Final residual = 6.487e-09, No Iterations 57
diagonal:  Solving for rho, Initial residual = 0, Final residual = 0, No Iterations 0
time step continuity errors : sum local = 6.636e-07, global = 1.869e-08, cumulative = 1.166e-06
PIMPLE: Iteration 2
DILUPBiCGStab:  Solving for Ux, Initial residual = 0.1298, Final residual = 1.721e-07, No Iterations 1
DILUPBiCGStab:  Solving for Uy, Initial residual = 0.5452, Final residual = 3.655e-07, No Iterations 1
DILUPBiCGStab:  Solving for Uz, Initial residual = 0.06241, Final residual = 1.819e-07, No Iterations 1
DILUPBiCGStab:  Solving for h, Initial residual = 0.2303, Final residual = 2.033e-07, No Iterations 1
DICPCG:  Solving for p_rgh, Initial residual = 0.43, Final residual = 0.004004, No Iterations 9
diagonal:  Solving for rho, Initial residual = 0, Final residual = 0, No Iterations 0
time step continuity errors : sum local = 4.369e-05, global = 1.261e-08, cumulative = 1.179e-06
DICPCG:  Solving for p_rgh, Initial residual = 0.3086, Final residual = 7.794e-09, No Iterations 58
diagonal:  Solving for rho, Initial residual = 0, Final residual = 0, No Iterations 0
time step continuity errors : sum local = 1.459e-06, global = 3.279e-08, cumulative = 1.212e-06
PIMPLE: Iteration 3
DILUPBiCGStab:  Solving for Ux, Initial residual = 0.06755, Final residual = 5.128e-08, No Iterations 1
DILUPBiCGStab:  Solving for Uy, Initial residual = 0.2359, Final residual = 1.596e-07, No Iterations 1
DILUPBiCGStab:  Solving for Uz, Initial residual = 0.06569, Final residual = 1.994e-07, No Iterations 1
DILUPBiCGStab:  Solving for h, Initial residual = 0.3576, Final residual = 2.874e-07, No Iterations 1
DICPCG:  Solving for p_rgh, Initial residual = 0.3871, Final residual = 0.002538, No Iterations 10
diagonal:  Solving for rho, Initial residual = 0, Final residual = 0, No Iterations 0
time step continuity errors : sum local = 2.447e-05, global = -4.643e-09, cumulative = 1.207e-06
DICPCG:  Solving for p_rgh, Initial residual = 0.2757, Final residual = 7.759e-09, No Iterations 58
diagonal:  Solving for rho, Initial residual = 0, Final residual = 0, No Iterations 0
time step continuity errors : sum local = 1.325e-06, global = 2.817e-08, cumulative = 1.235e-06
DILUPBiCGStab:  Solving for epsilon, Initial residual = 0.8204, Final residual = 4.542e-07, No Iterations 1
DILUPBiCGStab:  Solving for k, Initial residual = 0.7731, Final residual = 4.672e-07, No Iterations 1
ExecutionTime = 0.368 s  ClockTime = 1 s

Courant Number mean: 0.002191 max: 0.01963
deltaT = 0.04147
Time = 0.129

PIMPLE: Iteration 1
diagonal:  Solving for rho, Initial residual = 0, Final residual = 0, No Iterations 0
DILUPBiCGStab:  Solving for Ux, Initial residual = 0.2919, Final residual = 3.144e-07, No Iterations 1
DILUPBiCGStab:  Solving for Uy, Initial residual = 0.6779, Final residual = 6.075e-07, No Iterations 1
DILUPBiCGStab:  Solving for Uz, Initial residual = 0.2844, Final residual = 1.173e-06, No Iterations 1
DILUPBiCGStab:  Solving for h, Initial residual = 0.9675, Final residual = 1.023e-06, No Iterations 1
DICPCG:  Solving for p_rgh, Initial residual = 0.6513, Final residual = 0.005369, No Iterations 10
diagonal:  Solving for rho, Initial residual = 0, Final residual = 0, No Iterations 0
time step continuity errors : sum local = 5.928e-05, global = -7.968e-08, cumulative = 1.156e-06
DICPCG:  Solving for p_rgh, Initial residual = 0.5561, Final residual = 9.136e-09, No Iterations 60
diagonal:  Solving for rho, Initial residual = 0, Final residual = 0, No Iterations 0
time step continuity errors : sum local = 1.992e-06, global = 3.792e-08, cumulative = 1.194e-06
PIMPLE: Iteration 2
DILUPBiCGStab:  Solving for Ux, Initial residual = 0.1189, Final residual = 1.246e-07, No Iterations 1
DILUPBiCGStab:  Solving for Uy, Initial residual = 0.3289, Final residual = 3.463e-07, No Iterations 1
DILUPBiCGStab:  Solving for Uz, Initial residual = 0.1317, Final residual = 5.584e-07, No Iterations 1
DILUPBiCGStab:  Solving for h, Initial residual = 0.2988, Final residual = 3.301e-07, No Iterations 1
DICPCG:  Solving for p_rgh, Initial residual = 0.6734, Final residual = 0.00566, No Iterations 10
diagonal:  Solving for rho, Initial residual = 0, Final residual = 0, No Iterations 0
time step continuity errors : sum local = 5.454e-05, global = -6.768e-08, cumulative = 1.126e-06
DICPCG:  Solving for p_rgh, Initial residual = 0.5696, Final residual = 8.757e-09, No Iterations 60
diagonal:  Solving for rho, Initial residual = 0, Final residual = 0, No Iterations 0
time step continuity errors : sum local = 1.736e-06, global = 3.171e-08, cumulative = 1.158e-06
PIMPLE: Iteration 3
DILUPBiCGStab:  Solving for Ux, Initial residual = 0.05826, Final residual = 6.531e-08, No Iterations 1
DILUPBiCGStab:  Solving for Uy, Initial residual = 0.1205, Final residual = 9.566e-08, No Iterations 1
DILUPBiCGStab:  Solving for Uz, Initial residual = 0.04963, Final residual = 1.953e-07, No Iterations 1
DILUPBiCGStab:  Solving for h, Initial residual = 0.102, Final residual = 1.127e-07, No Iterations 1
DICPCG:  Solving for p_rgh, Initial residual = 0.5836, Final residual = 0.004834, No Iterations 10
diagonal:  Solving for rho, Initial residual = 0, Final residual = 0, No Iterations 0
time step continuity errors : sum local = 3.876e-05, global = -3.626e-08, cumulative = 1.121e-06
DICPCG:  Solving for p_rgh, Initial residual = 0.482, Final residual = 9.882e-09, No Iterations 59
diagonal:  Solving for rho, Initial residual = 0, Final residual = 0, No Iterations 0
time step continuity errors : sum local = 1.144e-06, global = 1.955e-08, cumulative = 1.141e-06
DILUPBiCGStab:  Solving for epsilon, Initial residual = 0.8367, Final residual = 5.759e-07, No Iterations 1
DILUPBiCGStab:  Solving for k, Initial residual = 0.7923, Final residual = 6.022e-07, No Iterations 1
ExecutionTime = 0.394 s  ClockTime = 1 s

Courant Number mean: 0.002482 max: 0.02422
deltaT = 0.04977
Time = 0.179

PIMPLE: Iteration 1
diagonal:  Solving for rho, Initial residual = 0, Final residual = 0, No Iterations 0
DILUPBiCGStab:  Solving for Ux, Initial residual = 0.267, Final residual = 3.701e-07, No Iterations 1
DILUPBiCGStab:  Solving for Uy, Initial residual = 0.4729, Final residual = 4.651e-07, No Iterations 1
DILUPBiCGStab:  Solving for Uz, Initial residual = 0.2194, Final residual = 1.241e-06, No Iterations 1
DILUPBiCGStab:  Solving for h, Initial residual = 0.4144, Final residual = 5.922e-07, No Iterations 1
DICPCG:  Solving for p_rgh, Initial residual = 0.5826, Final residual = 0.00399, No Iterations 10
diagonal:  Solving for rho, Initial residual = 0, Final residual = 0, No Iterations 0
time step continuity errors : sum local = 3.578e-05, global = -4.775e-08, cumulative = 1.093e-06
DICPCG:  Solving for p_rgh, Initial residual = 0.4891, Final residual = 5.935e-09, No Iterations 60
diagonal:  Solving for rho, Initial residual = 0, Final residual = 0, No Iterations 0
time step continuity errors : sum local = 5.052e-07, global = 4.432e-09, cumulative = 1.098e-06
PIMPLE: Iteration 2
DILUPBiCGStab:  Solving for Ux, Initial residual = 0.1173, Final residual = 1.584e-07, No Iterations 1
DILUPBiCGStab:  Solving for Uy, Initial residual = 0.4303, Final residual = 3.291e-07, No Iterations 1
DILUPBiCGStab:  Solving for Uz, Initial residual = 0.07811, Final residual = 3.564e-07, No Iterations 1
DILUPBiCGStab:  Solving for h, Initial residual = 0.2554, Final residual = 3.274e-07, No Iterations 1
DICPCG:  Solving for p_rgh, Initial residual = 0.5692, Final residual = 0.00489, No Iterations 8
diagonal:  Solving for rho, Initial residual = 0, Final residual = 0, No Iterations 0
time step continuity errors : sum local = 3.647e-05, global = -2.366e-08, cumulative = 1.074e-06
DICPCG:  Solving for p_rgh, Initial residual = 0.4389, Final residual = 7.652e-09, No Iterations 59
diagonal:  Solving for rho, Initial residual = 0, Final residual = 0, No Iterations 0
time step continuity errors : sum local = 2.101e-07, global = -1.126e-09, cumulative = 1.073e-06
PIMPLE: Iteration 3
DILUPBiCGStab:  Solving for Ux, Initial residual = 0.06014, Final residual = 8.093e-08, No Iterations 1
DILUPBiCGStab:  Solving for Uy, Initial residual = 0.3561, Final residual = 2.831e-07, No Iterations 1
DILUPBiCGStab:  Solving for Uz, Initial residual = 0.03022, Final residual = 4.939e-08, No Iterations 1
DILUPBiCGStab:  Solving for h, Initial residual = 0.2745, Final residual = 3.472e-07, No Iterations 1
DICPCG:  Solving for p_rgh, Initial residual = 0.4617, Final residual = 0.001996, No Iterations 8
diagonal:  Solving for rho, Initial residual = 0, Final residual = 0, No Iterations 0
time step continuity errors : sum local = 1.306e-05, global = -8.116e-09, cumulative = 1.065e-06
DICPCG:  Solving for p_rgh, Initial residual = 0.3339, Final residual = 7.514e-09, No Iterations 58
diagonal:  Solving for rho, Initial residual = 0, Final residual = 0, No Iterations 0
time step continuity errors : sum local = 7.098e-08, global = -3.082e-09, cumulative = 1.062e-06
DILUPBiCGStab:  Solving for epsilon, Initial residual = 0.8464, Final residual = 6.347e-07, No Iterations 1
DILUPBiCGStab:  Solving for k, Initial residual = 0.8048, Final residual = 6.782e-07, No Iterations 1
ExecutionTime = 0.421 s  ClockTime = 1 s

Courant Number mean: 0.002345 max: 0.0298
deltaT = 0.05
Time = 0.229

PIMPLE: Iteration 1
diagonal:  Solving for rho, Initial residual = 0, Final residual = 0, No Iterations 0
DILUPBiCGStab:  Solving for Ux, Initial residual = 0.2353, Final residual = 3.178e-07, No Iterations 1
DILUPBiCGStab:  Solving for Uy, Initial residual = 0.7125, Final residual = 5.412e-07, No Iterations 1
DILUPBiCGStab:  Solving for Uz, Initial residual = 0.1209, Final residual = 2.083e-07, No Iterations 1
DILUPBiCGStab:  Solving for h, Initial residual = 0.4006, Final residual = 4.969e-07, No Iterations 1
DICPCG:  Solving for p_rgh, Initial residual = 0.5489, Final residual = 0.004394, No Iterations 9
diagonal:  Solving for rho, Initial residual = 0, Final residual = 0, No Iterations 0
time step continuity errors : sum local = 2.304e-05, global = 1.102e-08, cumulative = 1.073e-06
DICPCG:  Solving for p_rgh, Initial residual = 0.4122, Final residual = 6.785e-09, No Iterations 60
diagonal:  Solving for rho, Initial residual = 0, Final residual = 0, No Iterations 0
time step continuity errors : sum local = 3.715e-07, global = -9.87e-09, cumulative = 1.063e-06
PIMPLE: Iteration 2
DILUPBiCGStab:  Solving for Ux, Initial residual = 0.1011, Final residual = 1.199e-07, No Iterations 1
DILUPBiCGStab:  Solving for Uy, Initial residual = 0.3731, Final residual = 2.858e-07, No Iterations 1
DILUPBiCGStab:  Solving for Uz, Initial residual = 0.06689, Final residual = 1.12e-07, No Iterations 1
DILUPBiCGStab:  Solving for h, Initial residual = 0.1292, Final residual = 1.736e-07, No Iterations 1
DICPCG:  Solving for p_rgh, Initial residual = 0.5675, Final residual = 0.003266, No Iterations 10
diagonal:  Solving for rho, Initial residual = 0, Final residual = 0, No Iterations 0
time step continuity errors : sum local = 1.452e-05, global = 1.469e-08, cumulative = 1.077e-06
DICPCG:  Solving for p_rgh, Initial residual = 0.4316, Final residual = 9.093e-09, No Iterations 60
diagonal:  Solving for rho, Initial residual = 0, Final residual = 0, No Iterations 0
time step continuity errors : sum local = 4.063e-07, global = -9.503e-09, cumulative = 1.068e-06
PIMPLE: Iteration 3
DILUPBiCGStab:  Solving for Ux, Initial residual = 0.04808, Final residual = 4.089e-08, No Iterations 1
DILUPBiCGStab:  Solving for Uy, Initial residual = 0.08184, Final residual = 8.024e-08, No Iterations 1
DILUPBiCGStab:  Solving for Uz, Initial residual = 0.04168, Final residual = 1.116e-07, No Iterations 1
DILUPBiCGStab:  Solving for h, Initial residual = 0.2315, Final residual = 2.941e-07, No Iterations 1
DICPCG:  Solving for p_rgh, Initial residual = 0.4696, Final residual = 0.002702, No Iterations 10
diagonal:  Solving for rho, Initial residual = 0, Final residual = 0, No Iterations 0
time step continuity errors : sum local = 1.032e-05, global = 9.852e-09, cumulative = 1.078e-06
DICPCG:  Solving for p_rgh, Initial residual = 0.3532, Final residual = 7.505e-09, No Iterations 60
diagonal:  Solving for rho, Initial residual = 0, Final residual = 0, No Iterations 0
time step continuity errors : sum local = 3.024e-07, global = -6.531e-09, cumulative = 1.071e-06
DILUPBiCGStab:  Solving for epsilon, Initial residual = 0.8398, Final residual = 6.056e-07, No Iterations 1
DILUPBiCGStab:  Solving for k, Initial residual = 0.7967, Final residual = 6.472e-07, No Iterations 1
ExecutionTime = 0.446 s  ClockTime = 1 s

Courant Number mean: 0.002243 max: 0.02799
deltaT = 0.05
Time = 0.279

PIMPLE: Iteration 1
diagonal:  Solving for rho, Initial residual = 0, Final residual = 0, No Iterations 0
DILUPBiCGStab:  Solving for Ux, Initial residual = 0.1927, Final residual = 1.61e-07, No Iterations 1
DILUPBiCGStab:  Solving for Uy, Initial residual = 0.3924, Final residual = 3.489e-07, No Iterations 1
DILUPBiCGStab:  Solving for Uz, Initial residual = 0.148, Final residual = 3.672e-07, No Iterations 1
DILUPBiCGStab:  Solving for h, Initial residual = 0.4867, Final residual = 6.021e-07, No Iterations 1
DICPCG:  Solving for p_rgh, Initial residual = 0.5958, Final residual = 0.004551, No Iterations 10
diagonal:  Solving for rho, Initial residual = 0, Final residual = 0, No Iterations 0
time step continuity errors : sum local = 1.494e-05, global = 2.013e-08, cumulative = 1.091e-06
DICPCG:  Solving for p_rgh, Initial residual = 0.4754, Final residual = 9.335e-09, No Iterations 60
diagonal:  Solving for rho, Initial residual = 0, Final residual = 0, No Iterations 0
time step continuity errors : sum local = 3.038e-07, global = -5.063e-09, cumulative = 1.086e-06
PIMPLE: Iteration 2
DILUPBiCGStab:  Solving for Ux, Initial residual = 0.09047, Final residual = 7.485e-08, No Iterations 1
DILUPBiCGStab:  Solving for Uy, Initial residual = 0.1235, Final residual = 1.329e-07, No Iterations 1
DILUPBiCGStab:  Solving for Uz, Initial residual = 0.06203, Final residual = 1.696e-07, No Iterations 1
DILUPBiCGStab:  Solving for h, Initial residual = 0.1451, Final residual = 1.771e-07, No Iterations 1
DICPCG:  Solving for p_rgh, Initial residual = 0.5788, Final residual = 0.004519, No Iterations 10
diagonal:  Solving for rho, Initial residual = 0, Final residual = 0, No Iterations 0
time step continuity errors : sum local = 1.275e-05, global = 1.341e-08, cumulative = 1.1e-06
DICPCG:  Solving for p_rgh, Initial residual = 0.451, Final residual = 7.773e-09, No Iterations 60
diagonal:  Solving for rho, Initial residual = 0, Final residual = 0, No Iterations 0
time step continuity errors : sum local = 2.205e-07, global = -2.81e-09, cumulative = 1.097e-06
PIMPLE: Iteration 3
DILUPBiCGStab:  Solving for Ux, Initial residual = 0.04236, Final residual = 4.133e-08, No Iterations 1
DILUPBiCGStab:  Solving for Uy, Initial residual = 0.1659, Final residual = 8.855e-08, No Iterations 1
DILUPBiCGStab:  Solving for Uz, Initial residual = 0.02064, Final residual = 5.031e-08, No Iterations 1
DILUPBiCGStab:  Solving for h, Initial residual = 0.07725, Final residual = 8.967e-08, No Iterations 1
DICPCG:  Solving for p_rgh, Initial residual = 0.4682, Final residual = 0.003485, No Iterations 10
diagonal:  Solving for rho, Initial residual = 0, Final residual = 0, No Iterations 0
time step continuity errors : sum local = 8.586e-06, global = 6.627e-09, cumulative = 1.104e-06
DICPCG:  Solving for p_rgh, Initial residual = 0.3491, Final residual = 8.773e-09, No Iterations 59
diagonal:  Solving for rho, Initial residual = 0, Final residual = 0, No Iterations 0
time step continuity errors : sum local = 1.282e-07, global = -1.062e-09, cumulative = 1.102e-06
DILUPBiCGStab:  Solving for epsilon, Initial residual = 0.8339, Final residual = 5.709e-07, No Iterations 1
DILUPBiCGStab:  Solving for k, Initial residual = 0.7893, Final residual = 6.09e-07, No Iterations 1
ExecutionTime = 0.47 s  ClockTime = 1 s

Courant Number mean: 0.002054 max: 0.02746
deltaT = 0.05
Time = 0.329

PIMPLE: Iteration 1
diagonal:  Solving for rho, Initial residual = 0, Final residual = 0, No Iterations 0
DILUPBiCGStab:  Solving for Ux, Initial residual = 0.1638, Final residual = 1.513e-07, No Iterations 1
DILUPBiCGStab:  Solving for Uy, Initial residual = 0.4172, Final residual = 2.152e-07, No Iterations 1
DILUPBiCGStab:  Solving for Uz, Initial residual = 0.08185, Final residual = 1.969e-07, No Iterations 1
DILUPBiCGStab:  Solving for h, Initial residual = 0.07257, Final residual = 9.468e-08, No Iterations 1
DICPCG:  Solving for p_rgh, Initial residual = 0.4981, Final residual = 0.002573, No Iterations 8
diagonal:  Solving for rho, Initial residual = 0, Final residual = 0, No Iterations 0
time step continuity errors : sum local = 5.179e-06, global = 2.606e-09, cumulative = 1.105e-06
DICPCG:  Solving for p_rgh, Initial residual = 0.3785, Final residual = 9.703e-09, No Iterations 58
diagonal:  Solving for rho, Initial residual = 0, Final residual = 0, No Iterations 0
time step continuity errors : sum local = 3.08e-08, global = 2.584e-09, cumulative = 1.108e-06
PIMPLE: Iteration 2
DILUPBiCGStab:  Solving for Ux, Initial residual = 0.07272, Final residual = 6.958e-08, No Iterations 1
DILUPBiCGStab:  Solving for Uy, Initial residual = 0.2032, Final residual = 1.062e-07, No Iterations 1
DILUPBiCGStab:  Solving for Uz, Initial residual = 0.03263, Final residual = 6.526e-08, No Iterations 1
DILUPBiCGStab:  Solving for h, Initial residual = 0.1103, Final residual = 1.267e-07, No Iterations 1
DICPCG:  Solving for p_rgh, Initial residual = 0.4681, Final residual = 0.002967, No Iterations 8
diagonal:  Solving for rho, Initial residual = 0, Final residual = 0, No Iterations 0
time step continuity errors : sum local = 5.282e-06, global = -5.169e-10, cumulative = 1.107e-06
DICPCG:  Solving for p_rgh, Initial residual = 0.3554, Final residual = 7.381e-09, No Iterations 59
diagonal:  Solving for rho, Initial residual = 0, Final residual = 0, No Iterations 0
time step continuity errors : sum local = 5.276e-08, global = 3.03e-09, cumulative = 1.11e-06
PIMPLE: Iteration 3
DILUPBiCGStab:  Solving for Ux, Initial residual = 0.02825, Final residual = 2.574e-08, No Iterations 1
DILUPBiCGStab:  Solving for Uy, Initial residual = 0.08505, Final residual = 5.08e-08, No Iterations 1
DILUPBiCGStab:  Solving for Uz, Initial residual = 0.01449, Final residual = 1.561e-08, No Iterations 1
DILUPBiCGStab:  Solving for h, Initial residual = 0.1045, Final residual = 1.195e-07, No Iterations 1
DICPCG:  Solving for p_rgh, Initial residual = 0.3772, Final residual = 0.003654, No Iterations 8
diagonal:  Solving for rho, Initial residual = 0, Final residual = 0, No Iterations 0
time step continuity errors : sum local = 5.791e-06, global = -9.433e-10, cumulative = 1.109e-06
DICPCG:  Solving for p_rgh, Initial residual = 0.2839, Final residual = 6.783e-09, No Iterations 59
diagonal:  Solving for rho, Initial residual = 0, Final residual = 0, No Iterations 0
time step continuity errors : sum local = 5.361e-08, global = 2.396e-09, cumulative = 1.112e-06
DILUPBiCGStab:  Solving for epsilon, Initial residual = 0.829, Final residual = 5.589e-07, No Iterations 1
DILUPBiCGStab:  Solving for k, Initial residual = 0.7833, Final residual = 5.939e-07, No Iterations 1
ExecutionTime = 0.497 s  ClockTime = 1 s

Courant Number mean: 0.001966 max: 0.02762
deltaT = 0.05
Time = 0.379

PIMPLE: Iteration 1
diagonal:  Solving for rho, Initial residual = 0, Final residual = 0, No Iterations 0
DILUPBiCGStab:  Solving for Ux, Initial residual = 0.1112, Final residual = 9.994e-08, No Iterations 1
DILUPBiCGStab:  Solving for Uy, Initial residual = 0.2954, Final residual = 1.693e-07, No Iterations 1
DILUPBiCGStab:  Solving for Uz, Initial residual = 0.05583, Final residual = 5.928e-08, No Iterations 1
DILUPBiCGStab:  Solving for h, Initial residual = 0.1563, Final residual = 1.713e-07, No Iterations 1
DICPCG:  Solving for p_rgh, Initial residual = 0.5183, Final residual = 0.002821, No Iterations 10
diagonal:  Solving for rho, Initial residual = 0, Final residual = 0, No Iterations 0
time step continuity errors : sum local = 3.771e-06, global = -6.226e-09, cumulative = 1.105e-06
DICPCG:  Solving for p_rgh, Initial residual = 0.4209, Final residual = 8.048e-09, No Iterations 60
diagonal:  Solving for rho, Initial residual = 0, Final residual = 0, No Iterations 0
time step continuity errors : sum local = 1.007e-07, global = 3.143e-09, cumulative = 1.109e-06
PIMPLE: Iteration 2
DILUPBiCGStab:  Solving for Ux, Initial residual = 0.03982, Final residual = 3.546e-08, No Iterations 1
DILUPBiCGStab:  Solving for Uy, Initial residual = 0.1013, Final residual = 6.324e-08, No Iterations 1
DILUPBiCGStab:  Solving for Uz, Initial residual = 0.02546, Final residual = 2.606e-08, No Iterations 1
DILUPBiCGStab:  Solving for h, Initial residual = 0.01823, Final residual = 2.294e-08, No Iterations 1
DICPCG:  Solving for p_rgh, Initial residual = 0.5285, Final residual = 0.003176, No Iterations 10
diagonal:  Solving for rho, Initial residual = 0, Final residual = 0, No Iterations 0
time step continuity errors : sum local = 3.612e-06, global = -4.774e-09, cumulative = 1.104e-06
DICPCG:  Solving for p_rgh, Initial residual = 0.4226, Final residual = 8.469e-09, No Iterations 60
diagonal:  Solving for rho, Initial residual = 0, Final residual = 0, No Iterations 0
time step continuity errors : sum local = 9.112e-08, global = 2.37e-09, cumulative = 1.106e-06
PIMPLE: Iteration 3
DILUPBiCGStab:  Solving for Ux, Initial residual = 0.01596, Final residual = 1.208e-08, No Iterations 1
DILUPBiCGStab:  Solving for Uy, Initial residual = 0.01808, Final residual = 8.819e-09, No Iterations 1
DILUPBiCGStab:  Solving for Uz, Initial residual = 0.01068, Final residual = 1.228e-08, No Iterations 1
DILUPBiCGStab:  Solving for h, Initial residual = 0.01826, Final residual = 1.887e-08, No Iterations 1
DICPCG:  Solving for p_rgh, Initial residual = 0.4317, Final residual = 0.002647, No Iterations 10
diagonal:  Solving for rho, Initial residual = 0, Final residual = 0, No Iterations 0
time step continuity errors : sum local = 2.587e-06, global = -2.512e-09, cumulative = 1.104e-06
DICPCG:  Solving for p_rgh, Initial residual = 0.3321, Final residual = 8.127e-09, No Iterations 59
diagonal:  Solving for rho, Initial residual = 0, Final residual = 0, No Iterations 0
time step continuity errors : sum local = 6.197e-08, global = 1.438e-09, cumulative = 1.105e-06
DILUPBiCGStab:  Solving for epsilon, Initial residual = 0.8244, Final residual = 5.465e-07, No Iterations 1
DILUPBiCGStab:  Solving for k, Initial residual = 0.7776, Final residual = 5.788e-07, No Iterations 1
ExecutionTime = 0.521 s  ClockTime = 1 s

Courant Number mean: 0.001946 max: 0.02757
deltaT = 0.05
Time = 0.429

PIMPLE: Iteration 1
diagonal:  Solving for rho, Initial residual = 0, Final residual = 0, No Iterations 0
DILUPBiCGStab:  Solving for Ux, Initial residual = 0.05684, Final residual = 4.283e-08, No Iterations 1
DILUPBiCGStab:  Solving for Uy, Initial residual = 0.0618, Final residual = 4.07e-08, No Iterations 1
DILUPBiCGStab:  Solving for Uz, Initial residual = 0.04172, Final residual = 4.653e-08, No Iterations 1
DILUPBiCGStab:  Solving for h, Initial residual = 0.08892, Final residual = 9.173e-08, No Iterations 1
DICPCG:  Solving for p_rgh, Initial residual = 0.4084, Final residual = 0.002757, No Iterations 10
diagonal:  Solving for rho, Initial residual = 0, Final residual = 0, No Iterations 0
time step continuity errors : sum local = 2.352e-06, global = -3.079e-09, cumulative = 1.102e-06
DICPCG:  Solving for p_rgh, Initial residual = 0.3165, Final residual = 6.785e-09, No Iterations 59
diagonal:  Solving for rho, Initial residual = 0, Final residual = 0, No Iterations 0
time step continuity errors : sum local = 4.149e-08, global = 3.147e-10, cumulative = 1.102e-06
PIMPLE: Iteration 2
DILUPBiCGStab:  Solving for Ux, Initial residual = 0.02618, Final residual = 2.006e-08, No Iterations 1
DILUPBiCGStab:  Solving for Uy, Initial residual = 0.04482, Final residual = 1.953e-08, No Iterations 1
DILUPBiCGStab:  Solving for Uz, Initial residual = 0.01754, Final residual = 1.974e-08, No Iterations 1
DILUPBiCGStab:  Solving for h, Initial residual = 0.04778, Final residual = 5.339e-08, No Iterations 1
DICPCG:  Solving for p_rgh, Initial residual = 0.3518, Final residual = 0.002495, No Iterations 10
diagonal:  Solving for rho, Initial residual = 0, Final residual = 0, No Iterations 0
time step continuity errors : sum local = 1.847e-06, global = -1.466e-09, cumulative = 1.101e-06
DICPCG:  Solving for p_rgh, Initial residual = 0.2749, Final residual = 5.847e-09, No Iterations 59
diagonal:  Solving for rho, Initial residual = 0, Final residual = 0, No Iterations 0
time step continuity errors : sum local = 2.398e-08, global = -1.675e-10, cumulative = 1.101e-06
PIMPLE: Iteration 3
DILUPBiCGStab:  Solving for Ux, Initial residual = 0.01138, Final residual = 9.033e-09, No Iterations 1
DILUPBiCGStab:  Solving for Uy, Initial residual = 0.04017, Final residual = 1.832e-08, No Iterations 1
DILUPBiCGStab:  Solving for Uz, Initial residual = 0.006279, Final residual = 7.937e-09, No Iterations 1
DILUPBiCGStab:  Solving for h, Initial residual = 0.03058, Final residual = 3.321e-08, No Iterations 1
DICPCG:  Solving for p_rgh, Initial residual = 0.2844, Final residual = 0.002435, No Iterations 8
diagonal:  Solving for rho, Initial residual = 0, Final residual = 0, No Iterations 0
time step continuity errors : sum local = 1.592e-06, global = -5.131e-10, cumulative = 1.1e-06
DICPCG:  Solving for p_rgh, Initial residual = 0.2174, Final residual = 7.916e-09, No Iterations 58
diagonal:  Solving for rho, Initial residual = 0, Final residual = 0, No Iterations 0
time step continuity errors : sum local = 1.124e-08, global = -2.996e-10, cumulative = 1.1e-06
DILUPBiCGStab:  Solving for epsilon, Initial residual = 0.8197, Final residual = 5.368e-07, No Iterations 1
DILUPBiCGStab:  Solving for k, Initial residual = 0.7717, Final residual = 5.667e-07, No Iterations 1
ExecutionTime = 0.545 s  ClockTime = 1 s

Courant Number mean: 0.001924 max: 0.02727
deltaT = 0.05
Time = 0.479

PIMPLE: Iteration 1
diagonal:  Solving for rho, Initial residual = 0, Final residual = 0, No Iterations 0
DILUPBiCGStab:  Solving for Ux, Initial residual = 0.04231, Final residual = 3.309e-08, No Iterations 1
DILUPBiCGStab:  Solving for Uy, Initial residual = 0.1479, Final residual = 6.57e-08, No Iterations 1
DILUPBiCGStab:  Solving for Uz, Initial residual = 0.02466, Final residual = 3.091e-08, No Iterations 1
DILUPBiCGStab:  Solving for h, Initial residual = 0.01954, Final residual = 2.334e-08, No Iterations 1
DICPCG:  Solving for p_rgh, Initial residual = 0.4365, Final residual = 0.003464, No Iterations 8
diagonal:  Solving for rho, Initial residual = 0, Final residual = 0, No Iterations 0
time step continuity errors : sum local = 1.764e-06, global = 1.023e-09, cumulative = 1.101e-06
DICPCG:  Solving for p_rgh, Initial residual = 0.3398, Final residual = 8.955e-09, No Iterations 58
diagonal:  Solving for rho, Initial residual = 0, Final residual = 0, No Iterations 0
time step continuity errors : sum local = 1.653e-08, global = -9.526e-10, cumulative = 1.1e-06
PIMPLE: Iteration 2
DILUPBiCGStab:  Solving for Ux, Initial residual = 0.01711, Final residual = 1.341e-08, No Iterations 1
DILUPBiCGStab:  Solving for Uy, Initial residual = 0.06427, Final residual = 2.943e-08, No Iterations 1
DILUPBiCGStab:  Solving for Uz, Initial residual = 0.01028, Final residual = 1.352e-08, No Iterations 1
DILUPBiCGStab:  Solving for h, Initial residual = 0.01689, Final residual = 1.952e-08, No Iterations 1
DICPCG:  Solving for p_rgh, Initial residual = 0.459, Final residual = 0.004368, No Iterations 8
diagonal:  Solving for rho, Initial residual = 0, Final residual = 0, No Iterations 0
time step continuity errors : sum local = 1.9e-06, global = 1.157e-09, cumulative = 1.101e-06
DICPCG:  Solving for p_rgh, Initial residual = 0.3544, Final residual = 7.437e-09, No Iterations 59
diagonal:  Solving for rho, Initial residual = 0, Final residual = 0, No Iterations 0
time step continuity errors : sum local = 2.093e-08, global = -9.05e-10, cumulative = 1.1e-06
PIMPLE: Iteration 3
DILUPBiCGStab:  Solving for Ux, Initial residual = 0.00567, Final residual = 4.078e-09, No Iterations 1
DILUPBiCGStab:  Solving for Uy, Initial residual = 0.01462, Final residual = 7.822e-09, No Iterations 1
DILUPBiCGStab:  Solving for Uz, Initial residual = 0.003962, Final residual = 5.866e-09, No Iterations 1
DILUPBiCGStab:  Solving for h, Initial residual = 0.01809, Final residual = 1.957e-08, No Iterations 1
DICPCG:  Solving for p_rgh, Initial residual = 0.3849, Final residual = 0.002615, No Iterations 9
diagonal:  Solving for rho, Initial residual = 0, Final residual = 0, No Iterations 0
time step continuity errors : sum local = 9.963e-07, global = 7.461e-10, cumulative = 1.101e-06
DICPCG:  Solving for p_rgh, Initial residual = 0.2882, Final residual = 6.4e-09, No Iterations 59
diagonal:  Solving for rho, Initial residual = 0, Final residual = 0, No Iterations 0
time step continuity errors : sum local = 1.673e-08, global = -6.394e-10, cumulative = 1.1e-06
DILUPBiCGStab:  Solving for epsilon, Initial residual = 0.8149, Final residual = 5.272e-07, No Iterations 1
DILUPBiCGStab:  Solving for k, Initial residual = 0.7658, Final residual = 5.549e-07, No Iterations 1
ExecutionTime = 0.57 s  ClockTime = 1 s

Courant Number mean: 0.001902 max: 0.02683
deltaT = 0.05
Time = 0.529

PIMPLE: Iteration 1
diagonal:  Solving for rho, Initial residual = 0, Final residual = 0, No Iterations 0
DILUPBiCGStab:  Solving for Ux, Initial residual = 0.02255, Final residual = 1.634e-08, No Iterations 1
DILUPBiCGStab:  Solving for Uy, Initial residual = 0.06564, Final residual = 3.324e-08, No Iterations 1
DILUPBiCGStab:  Solving for Uz, Initial residual = 0.01545, Final residual = 2.299e-08, No Iterations 1
DILUPBiCGStab:  Solving for h, Initial residual = 0.03696, Final residual = 4.147e-08, No Iterations 1
DICPCG:  Solving for p_rgh, Initial residual = 0.4078, Final residual = 0.003763, No Iterations 9
diagonal:  Solving for rho, Initial residual = 0, Final residual = 0, No Iterations 0
time step continuity errors : sum local = 1.278e-06, global = 1.596e-09, cumulative = 1.102e-06
DICPCG:  Solving for p_rgh, Initial residual = 0.3019, Final residual = 6.439e-09, No Iterations 59
diagonal:  Solving for rho, Initial residual = 0, Final residual = 0, No Iterations 0
time step continuity errors : sum local = 1.65e-08, global = -5.263e-10, cumulative = 1.101e-06
PIMPLE: Iteration 2
DILUPBiCGStab:  Solving for Ux, Initial residual = 0.008665, Final residual = 6.229e-09, No Iterations 1
DILUPBiCGStab:  Solving for Uy, Initial residual = 0.01848, Final residual = 1.077e-08, No Iterations 1
DILUPBiCGStab:  Solving for Uz, Initial residual = 0.006582, Final residual = 1.081e-08, No Iterations 1
DILUPBiCGStab:  Solving for h, Initial residual = 0.0132, Final residual = 1.341e-08, No Iterations 1
DICPCG:  Solving for p_rgh, Initial residual = 0.3601, Final residual = 0.001972, No Iterations 10
diagonal:  Solving for rho, Initial residual = 0, Final residual = 0, No Iterations 0
time step continuity errors : sum local = 6.188e-07, global = 1.13e-09, cumulative = 1.102e-06
DICPCG:  Solving for p_rgh, Initial residual = 0.2611, Final residual = 5.617e-09, No Iterations 59
diagonal:  Solving for rho, Initial residual = 0, Final residual = 0, No Iterations 0
time step continuity errors : sum local = 1.399e-08, global = -3.563e-10, cumulative = 1.102e-06
PIMPLE: Iteration 3
DILUPBiCGStab:  Solving for Ux, Initial residual = 0.002987, Final residual = 2.269e-09, No Iterations 1
DILUPBiCGStab:  Solving for Uy, Initial residual = 0.005308, Final residual = 3.437e-09, No Iterations 1
DILUPBiCGStab:  Solving for Uz, Initial residual = 0.002569, Final residual = 5.158e-09, No Iterations 1
DILUPBiCGStab:  Solving for h, Initial residual = 0.004091, Final residual = 4.779e-09, No Iterations 1
DICPCG:  Solving for p_rgh, Initial residual = 0.2644, Final residual = 0.001457, No Iterations 10
diagonal:  Solving for rho, Initial residual = 0, Final residual = 0, No Iterations 0
time step continuity errors : sum local = 4.281e-07, global = 6.472e-10, cumulative = 1.103e-06
DICPCG:  Solving for p_rgh, Initial residual = 0.1876, Final residual = 9.102e-09, No Iterations 58
diagonal:  Solving for rho, Initial residual = 0, Final residual = 0, No Iterations 0
time step continuity errors : sum local = 9.245e-09, global = -2.002e-10, cumulative = 1.103e-06
DILUPBiCGStab:  Solving for epsilon, Initial residual = 0.8101, Final residual = 5.183e-07, No Iterations 1
DILUPBiCGStab:  Solving for k, Initial residual = 0.7597, Final residual = 5.438e-07, No Iterations 1
ExecutionTime = 0.596 s  ClockTime = 1 s

Courant Number mean: 0.001877 max: 0.02636
deltaT = 0.05
Time = 0.579

PIMPLE: Iteration 1
diagonal:  Solving for rho, Initial residual = 0, Final residual = 0, No Iterations 0
DILUPBiCGStab:  Solving for Ux, Initial residual = 0.01149, Final residual = 8.649e-09, No Iterations 1
DILUPBiCGStab:  Solving for Uy, Initial residual = 0.01534, Final residual = 1.188e-08, No Iterations 1
DILUPBiCGStab:  Solving for Uz, Initial residual = 0.01012, Final residual = 2.028e-08, No Iterations 1
DILUPBiCGStab:  Solving for h, Initial residual = 0.009014, Final residual = 1.523e-08, No Iterations 1
DICPCG:  Solving for p_rgh, Initial residual = 0.2038, Final residual = 0.001821, No Iterations 9
diagonal:  Solving for rho, Initial residual = 0, Final residual = 0, No Iterations 0
time step continuity errors : sum local = 4.967e-07, global = 6.921e-10, cumulative = 1.103e-06
DICPCG:  Solving for p_rgh, Initial residual = 0.1457, Final residual = 6.07e-09, No Iterations 58
diagonal:  Solving for rho, Initial residual = 0, Final residual = 0, No Iterations 0
time step continuity errors : sum local = 4.757e-09, global = 9.495e-12, cumulative = 1.103e-06
PIMPLE: Iteration 2
DILUPBiCGStab:  Solving for Ux, Initial residual = 0.005091, Final residual = 4.038e-09, No Iterations 1
DILUPBiCGStab:  Solving for Uy, Initial residual = 0.01005, Final residual = 6.539e-09, No Iterations 1
DILUPBiCGStab:  Solving for Uz, Initial residual = 0.004487, Final residual = 9.939e-09, No Iterations 1
DILUPBiCGStab:  Solving for h, Initial residual = 0.006195, Final residual = 7.667e-09, No Iterations 1
DICPCG:  Solving for p_rgh, Initial residual = 0.1697, Final residual = 0.001204, No Iterations 8
diagonal:  Solving for rho, Initial residual = 0, Final residual = 0, No Iterations 0
time step continuity errors : sum local = 3.122e-07, global = 4.006e-10, cumulative = 1.104e-06
DICPCG:  Solving for p_rgh, Initial residual = 0.1224, Final residual = 9.462e-09, No Iterations 56
diagonal:  Solving for rho, Initial residual = 0, Final residual = 0, No Iterations 0
time step continuity errors : sum local = 2.31e-09, global = 8.787e-11, cumulative = 1.104e-06
PIMPLE: Iteration 3
DILUPBiCGStab:  Solving for Ux, Initial residual = 0.002112, Final residual = 1.921e-09, No Iterations 1
DILUPBiCGStab:  Solving for Uy, Initial residual = 0.00641, Final residual = 3.795e-09, No Iterations 1
DILUPBiCGStab:  Solving for Uz, Initial residual = 0.001837, Final residual = 4.892e-09, No Iterations 1
DILUPBiCGStab:  Solving for h, Initial residual = 0.004265, Final residual = 4.744e-09, No Iterations 1
DICPCG:  Solving for p_rgh, Initial residual = 0.1309, Final residual = 0.00056, No Iterations 8
diagonal:  Solving for rho, Initial residual = 0, Final residual = 0, No Iterations 0
time step continuity errors : sum local = 1.393e-07, global = 2.48e-10, cumulative = 1.104e-06
DICPCG:  Solving for p_rgh, Initial residual = 0.09437, Final residual = 8.642e-09, No Iterations 56
diagonal:  Solving for rho, Initial residual = 0, Final residual = 0, No Iterations 0
time step continuity errors : sum local = 9.65e-10, global = 9.295e-11, cumulative = 1.104e-06
DILUPBiCGStab:  Solving for epsilon, Initial residual = 0.8052, Final residual = 5.1e-07, No Iterations 1
DILUPBiCGStab:  Solving for k, Initial residual = 0.7536, Final residual = 5.335e-07, No Iterations 1
ExecutionTime = 0.621 s  ClockTime = 1 s

Courant Number mean: 0.001855 max: 0.02591
deltaT = 0.05
Time = 0.629

PIMPLE: Iteration 1
diagonal:  Solving for rho, Initial residual = 0, Final residual = 0, No Iterations 0
DILUPBiCGStab:  Solving for Ux, Initial residual = 0.008256, Final residual = 7.413e-09, No Iterations 1
DILUPBiCGStab:  Solving for Uy, Initial residual = 0.02291, Final residual = 1.397e-08, No Iterations 1
DILUPBiCGStab:  Solving for Uz, Initial residual = 0.007289, Final residual = 1.943e-08, No Iterations 1
DILUPBiCGStab:  Solving for h, Initial residual = 0.006279, Final residual = 1.138e-08, No Iterations 1
DICPCG:  Solving for p_rgh, Initial residual = 0.18, Final residual = 0.00175, No Iterations 7
diagonal:  Solving for rho, Initial residual = 0, Final residual = 0, No Iterations 0
time step continuity errors : sum local = 3.887e-07, global = 1.439e-11, cumulative = 1.104e-06
DICPCG:  Solving for p_rgh, Initial residual = 0.1335, Final residual = 5.543e-09, No Iterations 57
diagonal:  Solving for rho, Initial residual = 0, Final residual = 0, No Iterations 0
time step continuity errors : sum local = 2.044e-09, global = 2.045e-10, cumulative = 1.104e-06
PIMPLE: Iteration 2
DILUPBiCGStab:  Solving for Ux, Initial residual = 0.003648, Final residual = 3.452e-09, No Iterations 1
DILUPBiCGStab:  Solving for Uy, Initial residual = 0.009865, Final residual = 6.43e-09, No Iterations 1
DILUPBiCGStab:  Solving for Uz, Initial residual = 0.003215, Final residual = 9.465e-09, No Iterations 1
DILUPBiCGStab:  Solving for h, Initial residual = 0.002831, Final residual = 5.511e-09, No Iterations 1
DICPCG:  Solving for p_rgh, Initial residual = 0.1846, Final residual = 0.001478, No Iterations 8
diagonal:  Solving for rho, Initial residual = 0, Final residual = 0, No Iterations 0
time step continuity errors : sum local = 3.03e-07, global = 4.253e-12, cumulative = 1.104e-06
DICPCG:  Solving for p_rgh, Initial residual = 0.1378, Final residual = 8.232e-09, No Iterations 57
diagonal:  Solving for rho, Initial residual = 0, Final residual = 0, No Iterations 0
time step continuity errors : sum local = 2.815e-09, global = 1.842e-10, cumulative = 1.104e-06
PIMPLE: Iteration 3
DILUPBiCGStab:  Solving for Ux, Initial residual = 0.00142, Final residual = 1.549e-09, No Iterations 1
DILUPBiCGStab:  Solving for Uy, Initial residual = 0.002756, Final residual = 2.472e-09, No Iterations 1
DILUPBiCGStab:  Solving for Uz, Initial residual = 0.00134, Final residual = 4.497e-09, No Iterations 1
DILUPBiCGStab:  Solving for h, Initial residual = 0.002083, Final residual = 2.959e-09, No Iterations 1
DICPCG:  Solving for p_rgh, Initial residual = 0.1541, Final residual = 0.001293, No Iterations 8
diagonal:  Solving for rho, Initial residual = 0, Final residual = 0, No Iterations 0
time step continuity errors : sum local = 2.496e-07, global = 5.793e-11, cumulative = 1.105e-06
DICPCG:  Solving for p_rgh, Initial residual = 0.1147, Final residual = 6.988e-09, No Iterations 57
diagonal:  Solving for rho, Initial residual = 0, Final residual = 0, No Iterations 0
time step continuity errors : sum local = 2.319e-09, global = 1.31e-10, cumulative = 1.105e-06
DILUPBiCGStab:  Solving for epsilon, Initial residual = 0.8004, Final residual = 5.027e-07, No Iterations 1
DILUPBiCGStab:  Solving for k, Initial residual = 0.7476, Final residual = 5.242e-07, No Iterations 1
ExecutionTime = 0.643 s  ClockTime = 1 s

Courant Number mean: 0.001839 max: 0.02549
deltaT = 0.05
Time = 0.679

PIMPLE: Iteration 1
diagonal:  Solving for rho, Initial residual = 0, Final residual = 0, No Iterations 0
DILUPBiCGStab:  Solving for Ux, Initial residual = 0.00568, Final residual = 6.18e-09, No Iterations 1
DILUPBiCGStab:  Solving for Uy, Initial residual = 0.01169, Final residual = 9.981e-09, No Iterations 1
DILUPBiCGStab:  Solving for Uz, Initial residual = 0.005367, Final residual = 1.806e-08, No Iterations 1
DILUPBiCGStab:  Solving for h, Initial residual = 0.006469, Final residual = 1.087e-08, No Iterations 1
DICPCG:  Solving for p_rgh, Initial residual = 0.1479, Final residual = 0.001288, No Iterations 8
diagonal:  Solving for rho, Initial residual = 0, Final residual = 0, No Iterations 0
time step continuity errors : sum local = 2.321e-07, global = -6.249e-12, cumulative = 1.105e-06
DICPCG:  Solving for p_rgh, Initial residual = 0.1102, Final residual = 6.625e-09, No Iterations 57
diagonal:  Solving for rho, Initial residual = 0, Final residual = 0, No Iterations 0
time step continuity errors : sum local = 1.964e-09, global = 9.215e-11, cumulative = 1.105e-06
PIMPLE: Iteration 2
DILUPBiCGStab:  Solving for Ux, Initial residual = 0.002612, Final residual = 2.939e-09, No Iterations 1
DILUPBiCGStab:  Solving for Uy, Initial residual = 0.004352, Final residual = 4.433e-09, No Iterations 1
DILUPBiCGStab:  Solving for Uz, Initial residual = 0.002528, Final residual = 8.785e-09, No Iterations 1
DILUPBiCGStab:  Solving for h, Initial residual = 0.003296, Final residual = 6.001e-09, No Iterations 1
DICPCG:  Solving for p_rgh, Initial residual = 0.1442, Final residual = 0.001382, No Iterations 8
diagonal:  Solving for rho, Initial residual = 0, Final residual = 0, No Iterations 0
time step continuity errors : sum local = 2.342e-07, global = 4.44e-11, cumulative = 1.105e-06
DICPCG:  Solving for p_rgh, Initial residual = 0.1074, Final residual = 6.759e-09, No Iterations 57
diagonal:  Solving for rho, Initial residual = 0, Final residual = 0, No Iterations 0
time step continuity errors : sum local = 1.881e-09, global = 6.439e-11, cumulative = 1.105e-06
PIMPLE: Iteration 3
DILUPBiCGStab:  Solving for Ux, Initial residual = 0.001101, Final residual = 1.366e-09, No Iterations 1
DILUPBiCGStab:  Solving for Uy, Initial residual = 0.00122, Final residual = 1.861e-09, No Iterations 1
DILUPBiCGStab:  Solving for Uz, Initial residual = 0.001146, Final residual = 4.225e-09, No Iterations 1
DILUPBiCGStab:  Solving for h, Initial residual = 0.001373, Final residual = 2.762e-09, No Iterations 1
DICPCG:  Solving for p_rgh, Initial residual = 0.1172, Final residual = 0.001072, No Iterations 8
diagonal:  Solving for rho, Initial residual = 0, Final residual = 0, No Iterations 0
time step continuity errors : sum local = 1.734e-07, global = 8.282e-11, cumulative = 1.105e-06
DICPCG:  Solving for p_rgh, Initial residual = 0.08652, Final residual = 8.697e-09, No Iterations 56
diagonal:  Solving for rho, Initial residual = 0, Final residual = 0, No Iterations 0
time step continuity errors : sum local = 1.338e-09, global = 3.937e-11, cumulative = 1.105e-06
DILUPBiCGStab:  Solving for epsilon, Initial residual = 0.7955, Final residual = 4.957e-07, No Iterations 1
DILUPBiCGStab:  Solving for k, Initial residual = 0.7415, Final residual = 5.153e-07, No Iterations 1
ExecutionTime = 0.668 s  ClockTime = 1 s

Courant Number mean: 0.001826 max: 0.02508
deltaT = 0.05
Time = 0.729

PIMPLE: Iteration 1
diagonal:  Solving for rho, Initial residual = 0, Final residual = 0, No Iterations 0
DILUPBiCGStab:  Solving for Ux, Initial residual = 0.004437, Final residual = 5.464e-09, No Iterations 1
DILUPBiCGStab:  Solving for Uy, Initial residual = 0.004975, Final residual = 7.45e-09, No Iterations 1
DILUPBiCGStab:  Solving for Uz, Initial residual = 0.004574, Final residual = 1.691e-08, No Iterations 1
DILUPBiCGStab:  Solving for h, Initial residual = 0.005225, Final residual = 1.03e-08, No Iterations 1
DICPCG:  Solving for p_rgh, Initial residual = 0.09982, Final residual = 0.0007358, No Iterations 8
diagonal:  Solving for rho, Initial residual = 0, Final residual = 0, No Iterations 0
time step continuity errors : sum local = 1.136e-07, global = 1.097e-10, cumulative = 1.105e-06
DICPCG:  Solving for p_rgh, Initial residual = 0.07294, Final residual = 5.826e-09, No Iterations 56
diagonal:  Solving for rho, Initial residual = 0, Final residual = 0, No Iterations 0
time step continuity errors : sum local = 7.939e-10, global = 1.884e-11, cumulative = 1.105e-06
PIMPLE: Iteration 2
DILUPBiCGStab:  Solving for Ux, Initial residual = 0.002072, Final residual = 2.629e-09, No Iterations 1
DILUPBiCGStab:  Solving for Uy, Initial residual = 0.002338, Final residual = 3.589e-09, No Iterations 1
DILUPBiCGStab:  Solving for Uz, Initial residual = 0.002192, Final residual = 8.278e-09, No Iterations 1
DILUPBiCGStab:  Solving for h, Initial residual = 0.00267, Final residual = 5.381e-09, No Iterations 1
DICPCG:  Solving for p_rgh, Initial residual = 0.09647, Final residual = 0.0008686, No Iterations 7
diagonal:  Solving for rho, Initial residual = 0, Final residual = 0, No Iterations 0
time step continuity errors : sum local = 1.283e-07, global = 1.328e-10, cumulative = 1.105e-06
DICPCG:  Solving for p_rgh, Initial residual = 0.07014, Final residual = 9.643e-09, No Iterations 55
diagonal:  Solving for rho, Initial residual = 0, Final residual = 0, No Iterations 0
time step continuity errors : sum local = 5.536e-10, global = 3.207e-12, cumulative = 1.105e-06
PIMPLE: Iteration 3
DILUPBiCGStab:  Solving for Ux, Initial residual = 0.0008916, Final residual = 1.238e-09, No Iterations 1
DILUPBiCGStab:  Solving for Uy, Initial residual = 0.001234, Final residual = 1.654e-09, No Iterations 1
DILUPBiCGStab:  Solving for Uz, Initial residual = 0.001003, Final residual = 4.076e-09, No Iterations 1
DILUPBiCGStab:  Solving for h, Initial residual = 0.001327, Final residual = 2.677e-09, No Iterations 1
DICPCG:  Solving for p_rgh, Initial residual = 0.07978, Final residual = 0.0007882, No Iterations 6
diagonal:  Solving for rho, Initial residual = 0, Final residual = 0, No Iterations 0
time step continuity errors : sum local = 1.128e-07, global = 1.281e-10, cumulative = 1.105e-06
DICPCG:  Solving for p_rgh, Initial residual = 0.05759, Final residual = 6.287e-09, No Iterations 54
diagonal:  Solving for rho, Initial residual = 0, Final residual = 0, No Iterations 0
time step continuity errors : sum local = 3.21e-10, global = -1.791e-12, cumulative = 1.105e-06
DILUPBiCGStab:  Solving for epsilon, Initial residual = 0.7907, Final residual = 4.891e-07, No Iterations 1
DILUPBiCGStab:  Solving for k, Initial residual = 0.7354, Final residual = 5.069e-07, No Iterations 1
ExecutionTime = 0.691 s  ClockTime = 1 s

Courant Number mean: 0.001815 max: 0.02469
deltaT = 0.05
Time = 0.779

PIMPLE: Iteration 1
diagonal:  Solving for rho, Initial residual = 0, Final residual = 0, No Iterations 0
DILUPBiCGStab:  Solving for Ux, Initial residual = 0.003599, Final residual = 4.946e-09, No Iterations 1
DILUPBiCGStab:  Solving for Uy, Initial residual = 0.004722, Final residual = 6.643e-09, No Iterations 1
DILUPBiCGStab:  Solving for Uz, Initial residual = 0.00402, Final residual = 1.625e-08, No Iterations 1
DILUPBiCGStab:  Solving for h, Initial residual = 0.005067, Final residual = 1.023e-08, No Iterations 1
DICPCG:  Solving for p_rgh, Initial residual = 0.0737, Final residual = 0.0005952, No Iterations 6
diagonal:  Solving for rho, Initial residual = 0, Final residual = 0, No Iterations 0
time step continuity errors : sum local = 8.215e-08, global = 1.848e-10, cumulative = 1.106e-06
DICPCG:  Solving for p_rgh, Initial residual = 0.05273, Final residual = 8.254e-09, No Iterations 54
diagonal:  Solving for rho, Initial residual = 0, Final residual = 0, No Iterations 0
time step continuity errors : sum local = 1.146e-10, global = -4.78e-12, cumulative = 1.106e-06
PIMPLE: Iteration 2
DILUPBiCGStab:  Solving for Ux, Initial residual = 0.001709, Final residual = 2.382e-09, No Iterations 1
DILUPBiCGStab:  Solving for Uy, Initial residual = 0.002327, Final residual = 3.232e-09, No Iterations 1
DILUPBiCGStab:  Solving for Uz, Initial residual = 0.001939, Final residual = 8.013e-09, No Iterations 1
DILUPBiCGStab:  Solving for h, Initial residual = 0.002513, Final residual = 5.054e-09, No Iterations 1
DICPCG:  Solving for p_rgh, Initial residual = 0.07425, Final residual = 0.0003761, No Iterations 7
diagonal:  Solving for rho, Initial residual = 0, Final residual = 0, No Iterations 0
time step continuity errors : sum local = 5.012e-08, global = 1.791e-10, cumulative = 1.106e-06
DICPCG:  Solving for p_rgh, Initial residual = 0.0529, Final residual = 5.654e-09, No Iterations 54
diagonal:  Solving for rho, Initial residual = 0, Final residual = 0, No Iterations 0
time step continuity errors : sum local = 1.291e-10, global = -1.071e-11, cumulative = 1.106e-06
PIMPLE: Iteration 3
DILUPBiCGStab:  Solving for Ux, Initial residual = 0.0007788, Final residual = 1.134e-09, No Iterations 1
DILUPBiCGStab:  Solving for Uy, Initial residual = 0.001051, Final residual = 1.575e-09, No Iterations 1
DILUPBiCGStab:  Solving for Uz, Initial residual = 0.0009021, Final residual = 3.997e-09, No Iterations 1
DILUPBiCGStab:  Solving for h, Initial residual = 0.001267, Final residual = 2.547e-09, No Iterations 1
DICPCG:  Solving for p_rgh, Initial residual = 0.06259, Final residual = 0.0003146, No Iterations 7
diagonal:  Solving for rho, Initial residual = 0, Final residual = 0, No Iterations 0
time step continuity errors : sum local = 4.084e-08, global = 1.519e-10, cumulative = 1.106e-06
DICPCG:  Solving for p_rgh, Initial residual = 0.04441, Final residual = 9.445e-09, No Iterations 53
diagonal:  Solving for rho, Initial residual = 0, Final residual = 0, No Iterations 0
time step continuity errors : sum local = 1.34e-10, global = -9.17e-12, cumulative = 1.106e-06
DILUPBiCGStab:  Solving for epsilon, Initial residual = 0.7858, Final residual = 4.826e-07, No Iterations 1
DILUPBiCGStab:  Solving for k, Initial residual = 0.7293, Final residual = 4.986e-07, No Iterations 1
ExecutionTime = 0.717 s  ClockTime = 1 s

Courant Number mean: 0.001804 max: 0.02431
deltaT = 0.05
Time = 0.829

PIMPLE: Iteration 1
diagonal:  Solving for rho, Initial residual = 0, Final residual = 0, No Iterations 0
DILUPBiCGStab:  Solving for Ux, Initial residual = 0.003126, Final residual = 4.525e-09, No Iterations 1
DILUPBiCGStab:  Solving for Uy, Initial residual = 0.004197, Final residual = 6.276e-09, No Iterations 1
DILUPBiCGStab:  Solving for Uz, Initial residual = 0.003618, Final residual = 1.591e-08, No Iterations 1
DILUPBiCGStab:  Solving for h, Initial residual = 0.005008, Final residual = 9.978e-09, No Iterations 1
DICPCG:  Solving for p_rgh, Initial residual = 0.0588, Final residual = 0.0005762, No Iterations 6
diagonal:  Solving for rho, Initial residual = 0, Final residual = 0, No Iterations 0
time step continuity errors : sum local = 7.265e-08, global = 2.096e-10, cumulative = 1.106e-06
DICPCG:  Solving for p_rgh, Initial residual = 0.04169, Final residual = 9.596e-09, No Iterations 53
diagonal:  Solving for rho, Initial residual = 0, Final residual = 0, No Iterations 0
time step continuity errors : sum local = 1.42e-10, global = -5.815e-12, cumulative = 1.106e-06
PIMPLE: Iteration 2
DILUPBiCGStab:  Solving for Ux, Initial residual = 0.001504, Final residual = 2.189e-09, No Iterations 1
DILUPBiCGStab:  Solving for Uy, Initial residual = 0.001984, Final residual = 3.09e-09, No Iterations 1
DILUPBiCGStab:  Solving for Uz, Initial residual = 0.001762, Final residual = 7.864e-09, No Iterations 1
DILUPBiCGStab:  Solving for h, Initial residual = 0.002492, Final residual = 4.877e-09, No Iterations 1
DICPCG:  Solving for p_rgh, Initial residual = 0.06228, Final residual = 0.0005745, No Iterations 6
diagonal:  Solving for rho, Initial residual = 0, Final residual = 0, No Iterations 0
time step continuity errors : sum local = 7.026e-08, global = 1.896e-10, cumulative = 1.106e-06
DICPCG:  Solving for p_rgh, Initial residual = 0.04418, Final residual = 9.703e-09, No Iterations 53
diagonal:  Solving for rho, Initial residual = 0, Final residual = 0, No Iterations 0
time step continuity errors : sum local = 1.837e-10, global = -6.921e-12, cumulative = 1.106e-06
PIMPLE: Iteration 3
DILUPBiCGStab:  Solving for Ux, Initial residual = 0.0006927, Final residual = 1.051e-09, No Iterations 1
DILUPBiCGStab:  Solving for Uy, Initial residual = 0.0008611, Final residual = 1.539e-09, No Iterations 1
DILUPBiCGStab:  Solving for Uz, Initial residual = 0.0008371, Final residual = 3.931e-09, No Iterations 1
DILUPBiCGStab:  Solving for h, Initial residual = 0.001239, Final residual = 2.445e-09, No Iterations 1
DICPCG:  Solving for p_rgh, Initial residual = 0.05351, Final residual = 0.0004553, No Iterations 6
diagonal:  Solving for rho, Initial residual = 0, Final residual = 0, No Iterations 0
time step continuity errors : sum local = 5.444e-08, global = 1.567e-10, cumulative = 1.106e-06
DICPCG:  Solving for p_rgh, Initial residual = 0.0379, Final residual = 7.601e-09, No Iterations 53
diagonal:  Solving for rho, Initial residual = 0, Final residual = 0, No Iterations 0
time step continuity errors : sum local = 1.503e-10, global = -4.997e-12, cumulative = 1.106e-06
DILUPBiCGStab:  Solving for epsilon, Initial residual = 0.781, Final residual = 4.763e-07, No Iterations 1
DILUPBiCGStab:  Solving for k, Initial residual = 0.7233, Final residual = 4.906e-07, No Iterations 1
ExecutionTime = 0.74 s  ClockTime = 1 s

Courant Number mean: 0.001794 max: 0.02394
deltaT = 0.05
Time = 0.879

PIMPLE: Iteration 1
diagonal:  Solving for rho, Initial residual = 0, Final residual = 0, No Iterations 0
DILUPBiCGStab:  Solving for Ux, Initial residual = 0.002783, Final residual = 4.192e-09, No Iterations 1
DILUPBiCGStab:  Solving for Uy, Initial residual = 0.003482, Final residual = 6.106e-09, No Iterations 1
DILUPBiCGStab:  Solving for Uz, Initial residual = 0.003353, Final residual = 1.564e-08, No Iterations 1
DILUPBiCGStab:  Solving for h, Initial residual = 0.004942, Final residual = 9.661e-09, No Iterations 1
DICPCG:  Solving for p_rgh, Initial residual = 0.04994, Final residual = 0.0003514, No Iterations 6
diagonal:  Solving for rho, Initial residual = 0, Final residual = 0, No Iterations 0
time step continuity errors : sum local = 4.1e-08, global = 2.1e-10, cumulative = 1.107e-06
DICPCG:  Solving for p_rgh, Initial residual = 0.03541, Final residual = 6.543e-09, No Iterations 53
diagonal:  Solving for rho, Initial residual = 0, Final residual = 0, No Iterations 0
time step continuity errors : sum local = 1.129e-10, global = -2.343e-12, cumulative = 1.107e-06
PIMPLE: Iteration 2
DILUPBiCGStab:  Solving for Ux, Initial residual = 0.001347, Final residual = 2.036e-09, No Iterations 1
DILUPBiCGStab:  Solving for Uy, Initial residual = 0.00166, Final residual = 3.018e-09, No Iterations 1
DILUPBiCGStab:  Solving for Uz, Initial residual = 0.001645, Final residual = 7.726e-09, No Iterations 1
DILUPBiCGStab:  Solving for h, Initial residual = 0.002473, Final residual = 4.753e-09, No Iterations 1
DICPCG:  Solving for p_rgh, Initial residual = 0.05419, Final residual = 0.0003644, No Iterations 6
diagonal:  Solving for rho, Initial residual = 0, Final residual = 0, No Iterations 0
time step continuity errors : sum local = 4.135e-08, global = 1.861e-10, cumulative = 1.107e-06
DICPCG:  Solving for p_rgh, Initial residual = 0.0385, Final residual = 6.287e-09, No Iterations 53
diagonal:  Solving for rho, Initial residual = 0, Final residual = 0, No Iterations 0
time step continuity errors : sum local = 1.13e-10, global = -1.884e-12, cumulative = 1.107e-06
PIMPLE: Iteration 3
DILUPBiCGStab:  Solving for Ux, Initial residual = 0.0006284, Final residual = 9.844e-10, No Iterations 1
DILUPBiCGStab:  Solving for Uy, Initial residual = 0.0007568, Final residual = 1.509e-09, No Iterations 1
DILUPBiCGStab:  Solving for Uz, Initial residual = 0.0007891, Final residual = 3.845e-09, No Iterations 1
DILUPBiCGStab:  Solving for h, Initial residual = 0.00123, Final residual = 2.372e-09, No Iterations 1
DICPCG:  Solving for p_rgh, Initial residual = 0.04709, Final residual = 0.0002916, No Iterations 6
diagonal:  Solving for rho, Initial residual = 0, Final residual = 0, No Iterations 0
time step continuity errors : sum local = 3.241e-08, global = 1.541e-10, cumulative = 1.107e-06
DICPCG:  Solving for p_rgh, Initial residual = 0.03341, Final residual = 5.066e-09, No Iterations 53
diagonal:  Solving for rho, Initial residual = 0, Final residual = 0, No Iterations 0
time step continuity errors : sum local = 8.456e-11, global = -9.035e-13, cumulative = 1.107e-06
DILUPBiCGStab:  Solving for epsilon, Initial residual = 0.7761, Final residual = 4.702e-07, No Iterations 1
DILUPBiCGStab:  Solving for k, Initial residual = 0.7173, Final residual = 4.829e-07, No Iterations 1
ExecutionTime = 0.763 s  ClockTime = 1 s

Courant Number mean: 0.001784 max: 0.02358
deltaT = 0.05
Time = 0.929

PIMPLE: Iteration 1
diagonal:  Solving for rho, Initial residual = 0, Final residual = 0, No Iterations 0
DILUPBiCGStab:  Solving for Ux, Initial residual = 0.002525, Final residual = 3.924e-09, No Iterations 1
DILUPBiCGStab:  Solving for Uy, Initial residual = 0.003046, Final residual = 5.98e-09, No Iterations 1
DILUPBiCGStab:  Solving for Uz, Initial residual = 0.003159, Final residual = 1.53e-08, No Iterations 1
DILUPBiCGStab:  Solving for h, Initial residual = 0.004896, Final residual = 9.377e-09, No Iterations 1
DICPCG:  Solving for p_rgh, Initial residual = 0.0442, Final residual = 0.0003675, No Iterations 5
diagonal:  Solving for rho, Initial residual = 0, Final residual = 0, No Iterations 0
time step continuity errors : sum local = 3.996e-08, global = 2.036e-10, cumulative = 1.107e-06
DICPCG:  Solving for p_rgh, Initial residual = 0.03137, Final residual = 8.146e-09, No Iterations 52
diagonal:  Solving for rho, Initial residual = 0, Final residual = 0, No Iterations 0
time step continuity errors : sum local = 5.727e-11, global = 5.288e-13, cumulative = 1.107e-06
PIMPLE: Iteration 2
DILUPBiCGStab:  Solving for Ux, Initial residual = 0.001228, Final residual = 1.909e-09, No Iterations 1
DILUPBiCGStab:  Solving for Uy, Initial residual = 0.00148, Final residual = 2.951e-09, No Iterations 1
DILUPBiCGStab:  Solving for Uz, Initial residual = 0.001555, Final residual = 7.552e-09, No Iterations 1
DILUPBiCGStab:  Solving for h, Initial residual = 0.002453, Final residual = 4.64e-09, No Iterations 1
DICPCG:  Solving for p_rgh, Initial residual = 0.04873, Final residual = 0.0003787, No Iterations 5
diagonal:  Solving for rho, Initial residual = 0, Final residual = 0, No Iterations 0
time step continuity errors : sum local = 4.014e-08, global = 1.802e-10, cumulative = 1.107e-06
DICPCG:  Solving for p_rgh, Initial residual = 0.03464, Final residual = 9.038e-09, No Iterations 52
diagonal:  Solving for rho, Initial residual = 0, Final residual = 0, No Iterations 0
time step continuity errors : sum local = 4.989e-11, global = 1.113e-12, cumulative = 1.107e-06
PIMPLE: Iteration 3
DILUPBiCGStab:  Solving for Ux, Initial residual = 0.000581, Final residual = 9.253e-10, No Iterations 1
DILUPBiCGStab:  Solving for Uy, Initial residual = 0.0006946, Final residual = 1.46e-09, No Iterations 1
DILUPBiCGStab:  Solving for Uz, Initial residual = 0.0007509, Final residual = 3.753e-09, No Iterations 1
DILUPBiCGStab:  Solving for h, Initial residual = 0.00122, Final residual = 2.31e-09, No Iterations 1
DICPCG:  Solving for p_rgh, Initial residual = 0.04271, Final residual = 0.0003003, No Iterations 5
diagonal:  Solving for rho, Initial residual = 0, Final residual = 0, No Iterations 0
time step continuity errors : sum local = 3.122e-08, global = 1.504e-10, cumulative = 1.107e-06
DICPCG:  Solving for p_rgh, Initial residual = 0.03033, Final residual = 7.048e-09, No Iterations 52
diagonal:  Solving for rho, Initial residual = 0, Final residual = 0, No Iterations 0
time step continuity errors : sum local = 3.783e-11, global = 1.263e-12, cumulative = 1.107e-06
DILUPBiCGStab:  Solving for epsilon, Initial residual = 0.7712, Final residual = 4.642e-07, No Iterations 1
DILUPBiCGStab:  Solving for k, Initial residual = 0.7113, Final residual = 4.753e-07, No Iterations 1
ExecutionTime = 0.787 s  ClockTime = 1 s

Courant Number mean: 0.001775 max: 0.02322
deltaT = 0.05
Time = 0.979

PIMPLE: Iteration 1
diagonal:  Solving for rho, Initial residual = 0, Final residual = 0, No Iterations 0
DILUPBiCGStab:  Solving for Ux, Initial residual = 0.002331, Final residual = 3.688e-09, No Iterations 1
DILUPBiCGStab:  Solving for Uy, Initial residual = 0.00279, Final residual = 5.8e-09, No Iterations 1
DILUPBiCGStab:  Solving for Uz, Initial residual = 0.003004, Final residual = 1.491e-08, No Iterations 1
DILUPBiCGStab:  Solving for h, Initial residual = 0.004858, Final residual = 9.125e-09, No Iterations 1
DICPCG:  Solving for p_rgh, Initial residual = 0.04006, Final residual = 0.0002259, No Iterations 5
diagonal:  Solving for rho, Initial residual = 0, Final residual = 0, No Iterations 0
time step continuity errors : sum local = 2.301e-08, global = 1.98e-10, cumulative = 1.108e-06
DICPCG:  Solving for p_rgh, Initial residual = 0.02844, Final residual = 6.5e-09, No Iterations 52
diagonal:  Solving for rho, Initial residual = 0, Final residual = 0, No Iterations 0
time step continuity errors : sum local = 3.025e-11, global = 1.924e-12, cumulative = 1.108e-06
PIMPLE: Iteration 2
DILUPBiCGStab:  Solving for Ux, Initial residual = 0.00114, Final residual = 1.797e-09, No Iterations 1
DILUPBiCGStab:  Solving for Uy, Initial residual = 0.001362, Final residual = 2.853e-09, No Iterations 1
DILUPBiCGStab:  Solving for Uz, Initial residual = 0.001483, Final residual = 7.366e-09, No Iterations 1
DILUPBiCGStab:  Solving for h, Initial residual = 0.002434, Final residual = 4.528e-09, No Iterations 1
DICPCG:  Solving for p_rgh, Initial residual = 0.0448, Final residual = 0.0003605, No Iterations 3
diagonal:  Solving for rho, Initial residual = 0, Final residual = 0, No Iterations 0
time step continuity errors : sum local = 3.586e-08, global = 1.76e-10, cumulative = 1.108e-06
DICPCG:  Solving for p_rgh, Initial residual = 0.03189, Final residual = 9.299e-09, No Iterations 51
diagonal:  Solving for rho, Initial residual = 0, Final residual = 0, No Iterations 0
time step continuity errors : sum local = 3.067e-11, global = 2.263e-12, cumulative = 1.108e-06
PIMPLE: Iteration 3
DILUPBiCGStab:  Solving for Ux, Initial residual = 0.0005452, Final residual = 8.74e-10, No Iterations 1
DILUPBiCGStab:  Solving for Uy, Initial residual = 0.000644, Final residual = 1.406e-09, No Iterations 1
DILUPBiCGStab:  Solving for Uz, Initial residual = 0.0007189, Final residual = 3.652e-09, No Iterations 1
DILUPBiCGStab:  Solving for h, Initial residual = 0.001211, Final residual = 2.253e-09, No Iterations 1
DICPCG:  Solving for p_rgh, Initial residual = 0.03952, Final residual = 0.0002844, No Iterations 3
diagonal:  Solving for rho, Initial residual = 0, Final residual = 0, No Iterations 0
time step continuity errors : sum local = 2.779e-08, global = 1.477e-10, cumulative = 1.108e-06
DICPCG:  Solving for p_rgh, Initial residual = 0.02809, Final residual = 6.711e-09, No Iterations 51
diagonal:  Solving for rho, Initial residual = 0, Final residual = 0, No Iterations 0
time step continuity errors : sum local = 2.641e-11, global = 1.994e-12, cumulative = 1.108e-06
DILUPBiCGStab:  Solving for epsilon, Initial residual = 0.7663, Final residual = 4.583e-07, No Iterations 1
DILUPBiCGStab:  Solving for k, Initial residual = 0.7053, Final residual = 4.68e-07, No Iterations 1
ExecutionTime = 0.81 s  ClockTime = 1 s

Courant Number mean: 0.001766 max: 0.02287
deltaT = 0.05
Time = 1.03

PIMPLE: Iteration 1
diagonal:  Solving for rho, Initial residual = 0, Final residual = 0, No Iterations 0
DILUPBiCGStab:  Solving for Ux, Initial residual = 0.002184, Final residual = 3.483e-09, No Iterations 1
DILUPBiCGStab:  Solving for Uy, Initial residual = 0.002584, Final residual = 5.59e-09, No Iterations 1
DILUPBiCGStab:  Solving for Uz, Initial residual = 0.002875, Final residual = 1.451e-08, No Iterations 1
DILUPBiCGStab:  Solving for h, Initial residual = 0.004821, Final residual = 8.896e-09, No Iterations 1
DICPCG:  Solving for p_rgh, Initial residual = 0.03684, Final residual = 0.0002319, No Iterations 3
diagonal:  Solving for rho, Initial residual = 0, Final residual = 0, No Iterations 0
time step continuity errors : sum local = 2.225e-08, global = 1.95e-10, cumulative = 1.108e-06
DICPCG:  Solving for p_rgh, Initial residual = 0.02614, Final residual = 6.918e-09, No Iterations 51
diagonal:  Solving for rho, Initial residual = 0, Final residual = 0, No Iterations 0
time step continuity errors : sum local = 2.382e-11, global = 2.141e-12, cumulative = 1.108e-06
PIMPLE: Iteration 2
DILUPBiCGStab:  Solving for Ux, Initial residual = 0.001072, Final residual = 1.699e-09, No Iterations 1
DILUPBiCGStab:  Solving for Uy, Initial residual = 0.001264, Final residual = 2.749e-09, No Iterations 1
DILUPBiCGStab:  Solving for Uz, Initial residual = 0.001421, Final residual = 7.162e-09, No Iterations 1
DILUPBiCGStab:  Solving for h, Initial residual = 0.002414, Final residual = 4.417e-09, No Iterations 1
DICPCG:  Solving for p_rgh, Initial residual = 0.04154, Final residual = 0.0003213, No Iterations 3
diagonal:  Solving for rho, Initial residual = 0, Final residual = 0, No Iterations 0
time step continuity errors : sum local = 3.015e-08, global = 1.74e-10, cumulative = 1.108e-06
DICPCG:  Solving for p_rgh, Initial residual = 0.02952, Final residual = 7.222e-09, No Iterations 51
diagonal:  Solving for rho, Initial residual = 0, Final residual = 0, No Iterations 0
time step continuity errors : sum local = 2.633e-11, global = 2.222e-12, cumulative = 1.108e-06
PIMPLE: Iteration 3
DILUPBiCGStab:  Solving for Ux, Initial residual = 0.0005158, Final residual = 8.278e-10, No Iterations 1
DILUPBiCGStab:  Solving for Uy, Initial residual = 0.000601, Final residual = 1.355e-09, No Iterations 1
DILUPBiCGStab:  Solving for Uz, Initial residual = 0.0006907, Final residual = 3.549e-09, No Iterations 1
DILUPBiCGStab:  Solving for h, Initial residual = 0.001201, Final residual = 2.198e-09, No Iterations 1
DICPCG:  Solving for p_rgh, Initial residual = 0.03673, Final residual = 0.0002865, No Iterations 3
diagonal:  Solving for rho, Initial residual = 0, Final residual = 0, No Iterations 0
time step continuity errors : sum local = 2.644e-08, global = 1.463e-10, cumulative = 1.109e-06
DICPCG:  Solving for p_rgh, Initial residual = 0.02607, Final residual = 8.106e-09, No Iterations 51
diagonal:  Solving for rho, Initial residual = 0, Final residual = 0, No Iterations 0
time step continuity errors : sum local = 2.289e-11, global = 1.916e-12, cumulative = 1.109e-06
DILUPBiCGStab:  Solving for epsilon, Initial residual = 0.7614, Final residual = 4.525e-07, No Iterations 1
DILUPBiCGStab:  Solving for k, Initial residual = 0.6993, Final residual = 4.608e-07, No Iterations 1
ExecutionTime = 0.835 s  ClockTime = 1 s

Courant Number mean: 0.001758 max: 0.02254
deltaT = 0.05
Time = 1.08

PIMPLE: Iteration 1
diagonal:  Solving for rho, Initial residual = 0, Final residual = 0, No Iterations 0
DILUPBiCGStab:  Solving for Ux, Initial residual = 0.002065, Final residual = 3.298e-09, No Iterations 1
DILUPBiCGStab:  Solving for Uy, Initial residual = 0.00241, Final residual = 5.391e-09, No Iterations 1
DILUPBiCGStab:  Solving for Uz, Initial residual = 0.002761, Final residual = 1.41e-08, No Iterations 1
DILUPBiCGStab:  Solving for h, Initial residual = 0.004784, Final residual = 8.681e-09, No Iterations 1
DICPCG:  Solving for p_rgh, Initial residual = 0.03388, Final residual = 0.0002076, No Iterations 3
diagonal:  Solving for rho, Initial residual = 0, Final residual = 0, No Iterations 0
time step continuity errors : sum local = 1.884e-08, global = 1.936e-10, cumulative = 1.109e-06
DICPCG:  Solving for p_rgh, Initial residual = 0.02401, Final residual = 6.219e-09, No Iterations 51
diagonal:  Solving for rho, Initial residual = 0, Final residual = 0, No Iterations 0
time step continuity errors : sum local = 2.058e-11, global = 1.987e-12, cumulative = 1.109e-06
PIMPLE: Iteration 2
DILUPBiCGStab:  Solving for Ux, Initial residual = 0.001016, Final residual = 1.61e-09, No Iterations 1
[...]
time step continuity errors : sum local = 8.481e-11, global = 3.142e-11, cumulative = 1.186e-06
DICPCG:  Solving for p_rgh, Initial residual = 0.0001964, Final residual = 7.848e-09, No Iterations 45
diagonal:  Solving for rho, Initial residual = 0, Final residual = 0, No Iterations 0
time step continuity errors : sum local = 3.61e-13, global = -2.36e-15, cumulative = 1.186e-06
PIMPLE: Iteration 3
DILUPBiCGStab:  Solving for Ux, Initial residual = 0.0001097, Final residual = 3.802e-11, No Iterations 1
DILUPBiCGStab:  Solving for Uy, Initial residual = 0.0001088, Final residual = 4.575e-11, No Iterations 1
DILUPBiCGStab:  Solving for Uz, Initial residual = 0.0001321, Final residual = 8.588e-11, No Iterations 1
DILUPBiCGStab:  Solving for h, Initial residual = 0.0001463, Final residual = 5.485e-11, No Iterations 1
DICPCG:  Solving for p_rgh, Initial residual = 0.0002359, Final residual = 1.575e-06, No Iterations 7
diagonal:  Solving for rho, Initial residual = 0, Final residual = 0, No Iterations 0
time step continuity errors : sum local = 6.758e-11, global = 2.632e-11, cumulative = 1.186e-06
DICPCG:  Solving for p_rgh, Initial residual = 0.0001655, Final residual = 6.317e-09, No Iterations 45
diagonal:  Solving for rho, Initial residual = 0, Final residual = 0, No Iterations 0
time step continuity errors : sum local = 2.914e-13, global = -3.986e-15, cumulative = 1.186e-06
DILUPBiCGStab:  Solving for epsilon, Initial residual = 0.1313, Final residual = 3.106e-08, No Iterations 1
DILUPBiCGStab:  Solving for k, Initial residual = 0.0947, Final residual = 2.432e-08, No Iterations 1
ExecutionTime = 13.47 s  ClockTime = 14 s

Courant Number mean: 0.0008762 max: 0.005529
deltaT = 0.05
Time = 17.2

PIMPLE: Iteration 1
diagonal:  Solving for rho, Initial residual = 0, Final residual = 0, No Iterations 0
DILUPBiCGStab:  Solving for Ux, Initial residual = 0.0004375, Final residual = 1.515e-10, No Iterations 1
DILUPBiCGStab:  Solving for Uy, Initial residual = 0.0004349, Final residual = 1.826e-10, No Iterations 1
DILUPBiCGStab:  Solving for Uz, Initial residual = 0.0005263, Final residual = 3.414e-10, No Iterations 1
DILUPBiCGStab:  Solving for h, Initial residual = 0.0005834, Final residual = 2.184e-10, No Iterations 1
DICPCG:  Solving for p_rgh, Initial residual = 0.0002793, Final residual = 2.647e-06, No Iterations 7
diagonal:  Solving for rho, Initial residual = 0, Final residual = 0, No Iterations 0
time step continuity errors : sum local = 1.067e-10, global = 3.506e-11, cumulative = 1.186e-06
DICPCG:  Solving for p_rgh, Initial residual = 0.0001956, Final residual = 8.922e-09, No Iterations 45
diagonal:  Solving for rho, Initial residual = 0, Final residual = 0, No Iterations 0
time step continuity errors : sum local = 4.077e-13, global = 4.494e-15, cumulative = 1.186e-06
PIMPLE: Iteration 2
DILUPBiCGStab:  Solving for Ux, Initial residual = 0.0002191, Final residual = 7.576e-11, No Iterations 1
DILUPBiCGStab:  Solving for Uy, Initial residual = 0.0002173, Final residual = 9.112e-11, No Iterations 1
DILUPBiCGStab:  Solving for Uz, Initial residual = 0.0002636, Final residual = 1.709e-10, No Iterations 1
DILUPBiCGStab:  Solving for h, Initial residual = 0.0002915, Final residual = 1.091e-10, No Iterations 1
DICPCG:  Solving for p_rgh, Initial residual = 0.0002777, Final residual = 2.062e-06, No Iterations 7
diagonal:  Solving for rho, Initial residual = 0, Final residual = 0, No Iterations 0
time step continuity errors : sum local = 8.653e-11, global = 3.125e-11, cumulative = 1.186e-06
DICPCG:  Solving for p_rgh, Initial residual = 0.0001947, Final residual = 7.884e-09, No Iterations 45
diagonal:  Solving for rho, Initial residual = 0, Final residual = 0, No Iterations 0
time step continuity errors : sum local = 3.616e-13, global = -3.147e-15, cumulative = 1.186e-06
PIMPLE: Iteration 3
DILUPBiCGStab:  Solving for Ux, Initial residual = 0.0001096, Final residual = 3.79e-11, No Iterations 1
DILUPBiCGStab:  Solving for Uy, Initial residual = 0.0001086, Final residual = 4.557e-11, No Iterations 1
DILUPBiCGStab:  Solving for Uz, Initial residual = 0.0001318, Final residual = 8.55e-11, No Iterations 1
DILUPBiCGStab:  Solving for h, Initial residual = 0.0001458, Final residual = 5.455e-11, No Iterations 1
DICPCG:  Solving for p_rgh, Initial residual = 0.0002342, Final residual = 1.586e-06, No Iterations 7
diagonal:  Solving for rho, Initial residual = 0, Final residual = 0, No Iterations 0
time step continuity errors : sum local = 6.785e-11, global = 2.618e-11, cumulative = 1.186e-06
DICPCG:  Solving for p_rgh, Initial residual = 0.0001644, Final residual = 6.361e-09, No Iterations 45
diagonal:  Solving for rho, Initial residual = 0, Final residual = 0, No Iterations 0
time step continuity errors : sum local = 2.922e-13, global = -4.448e-15, cumulative = 1.186e-06
DILUPBiCGStab:  Solving for epsilon, Initial residual = 0.1309, Final residual = 3.091e-08, No Iterations 1
DILUPBiCGStab:  Solving for k, Initial residual = 0.09436, Final residual = 2.419e-08, No Iterations 1
ExecutionTime = 13.51 s  ClockTime = 14 s

Courant Number mean: 0.0008749 max: 0.005522
deltaT = 0.05
Time = 17.2

PIMPLE: Iteration 1
diagonal:  Solving for rho, Initial residual = 0, Final residual = 0, No Iterations 0
DILUPBiCGStab:  Solving for Ux, Initial residual = 0.0004369, Final residual = 1.51e-10, No Iterations 1
DILUPBiCGStab:  Solving for Uy, Initial residual = 0.0004344, Final residual = 1.819e-10, No Iterations 1
DILUPBiCGStab:  Solving for Uz, Initial residual = 0.0005253, Final residual = 3.399e-10, No Iterations 1
DILUPBiCGStab:  Solving for h, Initial residual = 0.0005814, Final residual = 2.172e-10, No Iterations 1
DICPCG:  Solving for p_rgh, Initial residual = 0.0002778, Final residual = 2.407e-06, No Iterations 7
diagonal:  Solving for rho, Initial residual = 0, Final residual = 0, No Iterations 0
time step continuity errors : sum local = 9.802e-11, global = 3.487e-11, cumulative = 1.187e-06
DICPCG:  Solving for p_rgh, Initial residual = 0.0001945, Final residual = 8.646e-09, No Iterations 45
diagonal:  Solving for rho, Initial residual = 0, Final residual = 0, No Iterations 0
time step continuity errors : sum local = 3.969e-13, global = 4.2e-15, cumulative = 1.187e-06
PIMPLE: Iteration 2
DILUPBiCGStab:  Solving for Ux, Initial residual = 0.0002188, Final residual = 7.552e-11, No Iterations 1
DILUPBiCGStab:  Solving for Uy, Initial residual = 0.000217, Final residual = 9.076e-11, No Iterations 1
DILUPBiCGStab:  Solving for Uz, Initial residual = 0.0002631, Final residual = 1.701e-10, No Iterations 1
DILUPBiCGStab:  Solving for h, Initial residual = 0.0002905, Final residual = 1.085e-10, No Iterations 1
DICPCG:  Solving for p_rgh, Initial residual = 0.0002765, Final residual = 1.91e-06, No Iterations 7
diagonal:  Solving for rho, Initial residual = 0, Final residual = 0, No Iterations 0
time step continuity errors : sum local = 8.129e-11, global = 3.108e-11, cumulative = 1.187e-06
DICPCG:  Solving for p_rgh, Initial residual = 0.0001939, Final residual = 7.81e-09, No Iterations 45
diagonal:  Solving for rho, Initial residual = 0, Final residual = 0, No Iterations 0
time step continuity errors : sum local = 3.587e-13, global = -2.974e-15, cumulative = 1.187e-06
PIMPLE: Iteration 3
DILUPBiCGStab:  Solving for Ux, Initial residual = 0.0001094, Final residual = 3.779e-11, No Iterations 1
DILUPBiCGStab:  Solving for Uy, Initial residual = 0.0001085, Final residual = 4.538e-11, No Iterations 1
DILUPBiCGStab:  Solving for Uz, Initial residual = 0.0001316, Final residual = 8.513e-11, No Iterations 1
DILUPBiCGStab:  Solving for h, Initial residual = 0.0001453, Final residual = 5.426e-11, No Iterations 1
DICPCG:  Solving for p_rgh, Initial residual = 0.0002334, Final residual = 1.507e-06, No Iterations 7
diagonal:  Solving for rho, Initial residual = 0, Final residual = 0, No Iterations 0
time step continuity errors : sum local = 6.515e-11, global = 2.604e-11, cumulative = 1.187e-06
DICPCG:  Solving for p_rgh, Initial residual = 0.0001637, Final residual = 6.365e-09, No Iterations 45
diagonal:  Solving for rho, Initial residual = 0, Final residual = 0, No Iterations 0
time step continuity errors : sum local = 2.926e-13, global = -4.227e-15, cumulative = 1.187e-06
DILUPBiCGStab:  Solving for epsilon, Initial residual = 0.1305, Final residual = 3.075e-08, No Iterations 1
DILUPBiCGStab:  Solving for k, Initial residual = 0.09403, Final residual = 2.406e-08, No Iterations 1
ExecutionTime = 13.54 s  ClockTime = 14 s

Courant Number mean: 0.0008736 max: 0.005516
deltaT = 0.05
Time = 17.3

PIMPLE: Iteration 1
diagonal:  Solving for rho, Initial residual = 0, Final residual = 0, No Iterations 0
DILUPBiCGStab:  Solving for Ux, Initial residual = 0.0004364, Final residual = 1.506e-10, No Iterations 1
DILUPBiCGStab:  Solving for Uy, Initial residual = 0.0004338, Final residual = 1.811e-10, No Iterations 1
DILUPBiCGStab:  Solving for Uz, Initial residual = 0.0005243, Final residual = 3.384e-10, No Iterations 1
DILUPBiCGStab:  Solving for h, Initial residual = 0.0005794, Final residual = 2.16e-10, No Iterations 1
DICPCG:  Solving for p_rgh, Initial residual = 0.0002781, Final residual = 2.334e-06, No Iterations 7
diagonal:  Solving for rho, Initial residual = 0, Final residual = 0, No Iterations 0
time step continuity errors : sum local = 9.543e-11, global = 3.469e-11, cumulative = 1.187e-06
DICPCG:  Solving for p_rgh, Initial residual = 0.0001947, Final residual = 8.647e-09, No Iterations 45
diagonal:  Solving for rho, Initial residual = 0, Final residual = 0, No Iterations 0
time step continuity errors : sum local = 3.968e-13, global = 4.346e-15, cumulative = 1.187e-06
PIMPLE: Iteration 2
DILUPBiCGStab:  Solving for Ux, Initial residual = 0.0002185, Final residual = 7.528e-11, No Iterations 1
DILUPBiCGStab:  Solving for Uy, Initial residual = 0.0002167, Final residual = 9.039e-11, No Iterations 1
DILUPBiCGStab:  Solving for Uz, Initial residual = 0.0002627, Final residual = 1.694e-10, No Iterations 1
DILUPBiCGStab:  Solving for h, Initial residual = 0.0002895, Final residual = 1.079e-10, No Iterations 1
DICPCG:  Solving for p_rgh, Initial residual = 0.0002761, Final residual = 1.897e-06, No Iterations 7
diagonal:  Solving for rho, Initial residual = 0, Final residual = 0, No Iterations 0
time step continuity errors : sum local = 8.079e-11, global = 3.092e-11, cumulative = 1.187e-06
DICPCG:  Solving for p_rgh, Initial residual = 0.0001936, Final residual = 7.898e-09, No Iterations 45
diagonal:  Solving for rho, Initial residual = 0, Final residual = 0, No Iterations 0
time step continuity errors : sum local = 3.617e-13, global = -2.732e-15, cumulative = 1.187e-06
PIMPLE: Iteration 3
DILUPBiCGStab:  Solving for Ux, Initial residual = 0.0001093, Final residual = 3.767e-11, No Iterations 1
DILUPBiCGStab:  Solving for Uy, Initial residual = 0.0001084, Final residual = 4.52e-11, No Iterations 1
DILUPBiCGStab:  Solving for Uz, Initial residual = 0.0001314, Final residual = 8.475e-11, No Iterations 1
DILUPBiCGStab:  Solving for h, Initial residual = 0.0001448, Final residual = 5.396e-11, No Iterations 1
DICPCG:  Solving for p_rgh, Initial residual = 0.0002329, Final residual = 1.514e-06, No Iterations 7
diagonal:  Solving for rho, Initial residual = 0, Final residual = 0, No Iterations 0
time step continuity errors : sum local = 6.533e-11, global = 2.59e-11, cumulative = 1.187e-06
DICPCG:  Solving for p_rgh, Initial residual = 0.0001633, Final residual = 6.444e-09, No Iterations 45
diagonal:  Solving for rho, Initial residual = 0, Final residual = 0, No Iterations 0
time step continuity errors : sum local = 2.948e-13, global = -3.861e-15, cumulative = 1.187e-06
DILUPBiCGStab:  Solving for epsilon, Initial residual = 0.13, Final residual = 3.059e-08, No Iterations 1
DILUPBiCGStab:  Solving for k, Initial residual = 0.0937, Final residual = 2.394e-08, No Iterations 1
ExecutionTime = 13.58 s  ClockTime = 14 s

Courant Number mean: 0.0008723 max: 0.00551
deltaT = 0.05
Time = 17.3

PIMPLE: Iteration 1
diagonal:  Solving for rho, Initial residual = 0, Final residual = 0, No Iterations 0
DILUPBiCGStab:  Solving for Ux, Initial residual = 0.0004359, Final residual = 1.501e-10, No Iterations 1
DILUPBiCGStab:  Solving for Uy, Initial residual = 0.0004333, Final residual = 1.804e-10, No Iterations 1
DILUPBiCGStab:  Solving for Uz, Initial residual = 0.0005234, Final residual = 3.369e-10, No Iterations 1
DILUPBiCGStab:  Solving for h, Initial residual = 0.0005774, Final residual = 2.149e-10, No Iterations 1
DICPCG:  Solving for p_rgh, Initial residual = 0.0002796, Final residual = 2.2e-06, No Iterations 7
diagonal:  Solving for rho, Initial residual = 0, Final residual = 0, No Iterations 0
time step continuity errors : sum local = 9.077e-11, global = 3.45e-11, cumulative = 1.187e-06
DICPCG:  Solving for p_rgh, Initial residual = 0.0001957, Final residual = 8.21e-09, No Iterations 45
diagonal:  Solving for rho, Initial residual = 0, Final residual = 0, No Iterations 0
time step continuity errors : sum local = 3.812e-13, global = 3.499e-15, cumulative = 1.187e-06
PIMPLE: Iteration 2
DILUPBiCGStab:  Solving for Ux, Initial residual = 0.0002183, Final residual = 7.505e-11, No Iterations 1
DILUPBiCGStab:  Solving for Uy, Initial residual = 0.0002165, Final residual = 9.003e-11, No Iterations 1
DILUPBiCGStab:  Solving for Uz, Initial residual = 0.0002622, Final residual = 1.686e-10, No Iterations 1
DILUPBiCGStab:  Solving for h, Initial residual = 0.0002885, Final residual = 1.074e-10, No Iterations 1
DICPCG:  Solving for p_rgh, Initial residual = 0.0002771, Final residual = 1.864e-06, No Iterations 7
diagonal:  Solving for rho, Initial residual = 0, Final residual = 0, No Iterations 0
time step continuity errors : sum local = 7.96e-11, global = 3.075e-11, cumulative = 1.187e-06
DICPCG:  Solving for p_rgh, Initial residual = 0.0001941, Final residual = 7.702e-09, No Iterations 45
diagonal:  Solving for rho, Initial residual = 0, Final residual = 0, No Iterations 0
time step continuity errors : sum local = 3.54e-13, global = -3.103e-15, cumulative = 1.187e-06
PIMPLE: Iteration 3
DILUPBiCGStab:  Solving for Ux, Initial residual = 0.0001092, Final residual = 3.755e-11, No Iterations 1
DILUPBiCGStab:  Solving for Uy, Initial residual = 0.0001083, Final residual = 4.502e-11, No Iterations 1
DILUPBiCGStab:  Solving for Uz, Initial residual = 0.0001311, Final residual = 8.438e-11, No Iterations 1
DILUPBiCGStab:  Solving for h, Initial residual = 0.0001443, Final residual = 5.367e-11, No Iterations 1
DICPCG:  Solving for p_rgh, Initial residual = 0.0002333, Final residual = 1.518e-06, No Iterations 7
diagonal:  Solving for rho, Initial residual = 0, Final residual = 0, No Iterations 0
time step continuity errors : sum local = 6.542e-11, global = 2.576e-11, cumulative = 1.187e-06
DICPCG:  Solving for p_rgh, Initial residual = 0.0001636, Final residual = 6.377e-09, No Iterations 45
diagonal:  Solving for rho, Initial residual = 0, Final residual = 0, No Iterations 0
time step continuity errors : sum local = 2.923e-13, global = -4.077e-15, cumulative = 1.187e-06
DILUPBiCGStab:  Solving for epsilon, Initial residual = 0.1296, Final residual = 3.044e-08, No Iterations 1
DILUPBiCGStab:  Solving for k, Initial residual = 0.09337, Final residual = 2.381e-08, No Iterations 1
ExecutionTime = 13.62 s  ClockTime = 14 s

Courant Number mean: 0.0008711 max: 0.005504
deltaT = 0.05
Time = 17.4

PIMPLE: Iteration 1
diagonal:  Solving for rho, Initial residual = 0, Final residual = 0, No Iterations 0
DILUPBiCGStab:  Solving for Ux, Initial residual = 0.0004353, Final residual = 1.496e-10, No Iterations 1
DILUPBiCGStab:  Solving for Uy, Initial residual = 0.0004328, Final residual = 1.797e-10, No Iterations 1
DILUPBiCGStab:  Solving for Uz, Initial residual = 0.0005225, Final residual = 3.355e-10, No Iterations 1
DILUPBiCGStab:  Solving for h, Initial residual = 0.0005754, Final residual = 2.137e-10, No Iterations 1
DICPCG:  Solving for p_rgh, Initial residual = 0.0002775, Final residual = 2.431e-06, No Iterations 7
diagonal:  Solving for rho, Initial residual = 0, Final residual = 0, No Iterations 0
time step continuity errors : sum local = 9.871e-11, global = 3.432e-11, cumulative = 1.187e-06
DICPCG:  Solving for p_rgh, Initial residual = 0.0001942, Final residual = 8.655e-09, No Iterations 45
diagonal:  Solving for rho, Initial residual = 0, Final residual = 0, No Iterations 0
time step continuity errors : sum local = 3.968e-13, global = 4.818e-15, cumulative = 1.187e-06
PIMPLE: Iteration 2
DILUPBiCGStab:  Solving for Ux, Initial residual = 0.000218, Final residual = 7.481e-11, No Iterations 1
DILUPBiCGStab:  Solving for Uy, Initial residual = 0.0002162, Final residual = 8.966e-11, No Iterations 1
DILUPBiCGStab:  Solving for Uz, Initial residual = 0.0002617, Final residual = 1.679e-10, No Iterations 1
DILUPBiCGStab:  Solving for h, Initial residual = 0.0002875, Final residual = 1.068e-10, No Iterations 1
DICPCG:  Solving for p_rgh, Initial residual = 0.0002755, Final residual = 2.052e-06, No Iterations 7
diagonal:  Solving for rho, Initial residual = 0, Final residual = 0, No Iterations 0
time step continuity errors : sum local = 8.586e-11, global = 3.059e-11, cumulative = 1.187e-06
DICPCG:  Solving for p_rgh, Initial residual = 0.0001931, Final residual = 8.109e-09, No Iterations 45
diagonal:  Solving for rho, Initial residual = 0, Final residual = 0, No Iterations 0
time step continuity errors : sum local = 3.685e-13, global = -2.332e-15, cumulative = 1.187e-06
PIMPLE: Iteration 3
DILUPBiCGStab:  Solving for Ux, Initial residual = 0.000109, Final residual = 3.743e-11, No Iterations 1
DILUPBiCGStab:  Solving for Uy, Initial residual = 0.0001081, Final residual = 4.484e-11, No Iterations 1
DILUPBiCGStab:  Solving for Uz, Initial residual = 0.0001309, Final residual = 8.401e-11, No Iterations 1
DILUPBiCGStab:  Solving for h, Initial residual = 0.0001438, Final residual = 5.339e-11, No Iterations 1
DICPCG:  Solving for p_rgh, Initial residual = 0.0002321, Final residual = 1.637e-06, No Iterations 7
diagonal:  Solving for rho, Initial residual = 0, Final residual = 0, No Iterations 0
time step continuity errors : sum local = 6.934e-11, global = 2.562e-11, cumulative = 1.187e-06
DICPCG:  Solving for p_rgh, Initial residual = 0.0001628, Final residual = 6.649e-09, No Iterations 45
diagonal:  Solving for rho, Initial residual = 0, Final residual = 0, No Iterations 0
time step continuity errors : sum local = 3.019e-13, global = -3.375e-15, cumulative = 1.187e-06
DILUPBiCGStab:  Solving for epsilon, Initial residual = 0.1292, Final residual = 3.028e-08, No Iterations 1
DILUPBiCGStab:  Solving for k, Initial residual = 0.09304, Final residual = 2.369e-08, No Iterations 1
ExecutionTime = 13.65 s  ClockTime = 14 s

Courant Number mean: 0.0008698 max: 0.005497
deltaT = 0.05
Time = 17.4

PIMPLE: Iteration 1
diagonal:  Solving for rho, Initial residual = 0, Final residual = 0, No Iterations 0
DILUPBiCGStab:  Solving for Ux, Initial residual = 0.0004348, Final residual = 1.492e-10, No Iterations 1
DILUPBiCGStab:  Solving for Uy, Initial residual = 0.0004323, Final residual = 1.79e-10, No Iterations 1
DILUPBiCGStab:  Solving for Uz, Initial residual = 0.0005216, Final residual = 3.34e-10, No Iterations 1
DILUPBiCGStab:  Solving for h, Initial residual = 0.0005734, Final residual = 2.126e-10, No Iterations 1
DICPCG:  Solving for p_rgh, Initial residual = 0.0002769, Final residual = 2.511e-06, No Iterations 7
diagonal:  Solving for rho, Initial residual = 0, Final residual = 0, No Iterations 0
time step continuity errors : sum local = 1.015e-10, global = 3.413e-11, cumulative = 1.187e-06
